alk5_x00
     RDKit          3D

 22 24  0  0  0  0  0  0  0  0999 V2000
    2.2784    1.6373    1.6207 O   0  0  0  0  0  0  0  0  0  0  0  0
    1.9744    0.8618    0.7227 C   0  0  0  0  0  0  0  0  0  0  0  0
    2.8391    0.1455   -0.0867 N   0  0  0  0  0  0  0  0  0  0  0  0
    4.2463    0.0902    0.0093 C   0  0  0  0  0  0  0  0  0  0  0  0
    4.9266   -0.6291   -0.9854 C   0  0  0  0  0  0  0  0  0  0  0  0
    6.3195   -0.7368   -0.9587 C   0  0  0  0  0  0  0  0  0  0  0  0
    7.0328   -0.1276    0.0644 C   0  0  0  0  0  0  0  0  0  0  0  0
    8.3676   -0.2304    0.0915 F   0  0  0  0  0  0  0  0  0  0  0  0
    6.3781    0.5846    1.0597 C   0  0  0  0  0  0  0  0  0  0  0  0
    4.9837    0.6926    1.0333 C   0  0  0  0  0  0  0  0  0  0  0  0
    0.5354    0.6856    0.4199 C   0  0  0  0  0  0  0  0  0  0  0  0
   -0.3394    1.7584    0.5383 C   0  0  0  0  0  0  0  0  0  0  0  0
   -1.6925    1.5704    0.2473 C   0  0  0  0  0  0  0  0  0  0  0  0
   -2.1639    0.3132   -0.1395 C   0  0  0  0  0  0  0  0  0  0  0  0
   -3.5019    0.1190   -0.4578 N   0  0  0  0  0  0  0  0  0  0  0  0
   -4.5365    0.7494    0.3825 C   0  0  0  0  0  0  0  0  0  0  0  0
   -5.5738   -0.2871    0.8484 C   0  0  0  0  0  0  0  0  0  0  0  0
   -6.2200   -0.9798   -0.2280 O   0  0  0  0  0  0  0  0  0  0  0  0
   -5.3517   -1.2280   -1.3458 C   0  0  0  0  0  0  0  0  0  0  0  0
   -3.8564   -1.2066   -0.9925 C   0  0  0  0  0  0  0  0  0  0  0  0
   -1.3076   -0.7286   -0.2542 N   0  0  0  0  0  0  0  0  0  0  0  0
    0.0016   -0.5335    0.0422 C   0  0  0  0  0  0  0  0  0  0  0  0
  1  2  2  0
  2  3  1  0
  3  4  1  0
  4  5  1  0
  5  6  2  0
  6  7  1  0
  7  8  1  0
  7  9  2  0
  9 10  1  0
  2 11  1  0
 11 12  1  0
 12 13  2  0
 13 14  1  0
 14 15  1  0
 15 16  1  0
 16 17  1  0
 17 18  1  0
 18 19  1  0
 19 20  1  0
 14 21  2  0
 21 22  1  0
 10  4  2  0
 22 11  2  0
 20 15  1  0
M  END
>  <gene>  (1) 
ALK5

>  <formula>  (1) 
C16H16FN3O2

>  <clinical_grade>  (1) 
false

>  <fsp3>  (1) 
0.25

$$$$
