
     RDKit          2D

 48 53  0  0  0  0  0  0  0  0999 V2000
   -2.9726    3.7336    0.0000 O   0  0  0  0  0  0  0  0  0  0  0  0
   -4.3429    3.1235    0.0000 C   0  0  0  0  0  0  0  0  0  0  0  0
   -4.4997    1.6317    0.0000 N   0  0  0  0  0  0  0  0  0  0  0  0
   -3.2862    0.7500    0.0000 C   0  0  0  0  0  0  0  0  0  0  0  0
   -3.2862   -0.7500    0.0000 C   0  0  0  0  0  0  0  0  0  0  0  0
   -1.8596   -1.2135    0.0000 C   0  0  0  0  0  0  0  0  0  0  0  0
   -2.7413    0.0000    0.0000 C   0  0  0  0  0  0  0  0  0  0  0  0
   -1.8596    1.2135    0.0000 C   0  0  0  0  0  0  0  0  0  0  0  0
   -0.4330    0.7500    0.0000 C   0  0  0  0  0  0  0  0  0  0  0  0
    0.8660   -0.0000    0.0000 C   0  0  0  0  0  0  0  0  0  0  0  0
   -0.4330   -0.7500    0.0000 C   0  0  0  0  0  0  0  0  0  0  0  0
   -1.8596    0.2865    0.0000 C   0  0  0  0  0  0  0  0  0  0  0  0
   -5.5564    4.0051    0.0000 C   0  0  0  0  0  0  0  0  0  0  0  0
   -6.9268    3.3950    0.0000 C   0  0  0  0  0  0  0  0  0  0  0  0
   -8.1403    4.2767    0.0000 C   0  0  0  0  0  0  0  0  0  0  0  0
   -7.9835    5.7685    0.0000 C   0  0  0  0  0  0  0  0  0  0  0  0
   -9.1970    6.6502    0.0000 F   0  0  0  0  0  0  0  0  0  0  0  0
   -6.6132    6.3786    0.0000 C   0  0  0  0  0  0  0  0  0  0  0  0
   -5.3996    5.4969    0.0000 C   0  0  0  0  0  0  0  0  0  0  0  0
   -4.0293    6.1070    0.0000 N   0  0  0  0  0  0  0  0  0  0  0  0
   -3.8725    7.5988    0.0000 C   0  0  0  0  0  0  0  0  0  0  0  0
   -2.5022    8.2089    0.0000 C   0  0  0  0  0  0  0  0  0  0  0  0
   -1.2887    7.3272    0.0000 O   0  0  0  0  0  0  0  0  0  0  0  0
   -1.4455    5.8355    0.0000 C   0  0  0  0  0  0  0  0  0  0  0  0
   -2.8158    5.2253    0.0000 C   0  0  0  0  0  0  0  0  0  0  0  0
   -5.8700    1.0216    0.0000 H   0  0  0  0  0  0  0  0  0  0  0  0
   -4.7780   -0.5932    0.0000 H   0  0  0  0  0  0  0  0  0  0  0  0
   -3.5980   -2.2172    0.0000 H   0  0  0  0  0  0  0  0  0  0  0  0
   -3.4451   -0.3742    0.0000 H   0  0  0  0  0  0  0  0  0  0  0  0
   -4.1968    0.3627    0.0000 H   0  0  0  0  0  0  0  0  0  0  0  0
   -2.3231    2.6401    0.0000 H   0  0  0  0  0  0  0  0  0  0  0  0
    0.1771    2.1203    0.0000 H   0  0  0  0  0  0  0  0  0  0  0  0
    1.8302    1.1491    0.0000 H   0  0  0  0  0  0  0  0  0  0  0  0
    1.8302   -1.1491    0.0000 H   0  0  0  0  0  0  0  0  0  0  0  0
    0.1771   -2.1203    0.0000 H   0  0  0  0  0  0  0  0  0  0  0  0
   -1.2020    1.6346    0.0000 H   0  0  0  0  0  0  0  0  0  0  0  0
   -0.4501   -0.2266    0.0000 H   0  0  0  0  0  0  0  0  0  0  0  0
   -7.0836    1.9033    0.0000 H   0  0  0  0  0  0  0  0  0  0  0  0
   -9.5106    3.6666    0.0000 H   0  0  0  0  0  0  0  0  0  0  0  0
   -6.4564    7.8704    0.0000 H   0  0  0  0  0  0  0  0  0  0  0  0
   -4.2354    9.0543    0.0000 H   0  0  0  0  0  0  0  0  0  0  0  0
   -5.3689    7.4942    0.0000 H   0  0  0  0  0  0  0  0  0  0  0  0
   -1.4232    9.2509    0.0000 H   0  0  0  0  0  0  0  0  0  0  0  0
   -3.3410    9.4525    0.0000 H   0  0  0  0  0  0  0  0  0  0  0  0
   -1.0826    4.3800    0.0000 H   0  0  0  0  0  0  0  0  0  0  0  0
    0.0509    5.9401    0.0000 H   0  0  0  0  0  0  0  0  0  0  0  0
   -3.8948    4.1834    0.0000 H   0  0  0  0  0  0  0  0  0  0  0  0
   -1.9770    3.9818    0.0000 H   0  0  0  0  0  0  0  0  0  0  0  0
  1  2  2  0
  2  3  1  0
  3  4  1  0
  4  5  1  0
  5  6  1  0
  6  7  1  0
  7  8  1  0
  8  9  1  0
  9 10  1  0
 10 11  1  0
  6 12  1  0
  2 13  1  0
 13 14  1  0
 14 15  2  0
 15 16  1  0
 16 17  1  0
 16 18  2  0
 18 19  1  0
 19 20  1  0
 20 21  1  0
 21 22  1  0
 22 23  1  0
 23 24  1  0
 24 25  1  0
  8  4  1  0
 11  9  1  0
 19 13  2  0
 25 20  1  0
 12  4  1  0
 11  6  1  0
  3 26  1  0
  5 27  1  0
  5 28  1  0
  7 29  1  0
  7 30  1  0
  8 31  1  0
  9 32  1  0
 10 33  1  0
 10 34  1  0
 11 35  1  0
 12 36  1  0
 12 37  1  0
 14 38  1  0
 15 39  1  0
 18 40  1  0
 21 41  1  0
 21 42  1  0
 22 43  1  0
 22 44  1  0
 24 45  1  0
 24 46  1  0
 25 47  1  0
 25 48  1  0
M  END
$$$$
