
     RDKit          3D

 46 49  0  0  0  0  0  0  0  0999 V2000
   -0.0556    0.7336    1.7939 O   0  0  0  0  0  0  0  0  0  0  0  0
    0.0961    1.1329    0.6478 C   0  0  0  0  0  0  0  0  0  0  0  0
    1.2395    0.9423   -0.1027 N   0  0  0  0  0  0  0  0  0  0  0  0
    2.3575    0.1624    0.3988 C   0  0  0  0  0  0  0  0  0  0  0  0
    3.6624    0.4836   -0.3589 C   0  0  0  0  0  0  0  0  0  0  0  0
    4.0771   -0.8844   -0.9318 C   0  0  0  0  0  0  0  0  0  0  0  0
    4.5398   -1.7900    0.2224 C   0  0  0  0  0  0  0  0  0  0  0  0
    3.2275   -2.1212    0.9485 C   0  0  0  0  0  0  0  0  0  0  0  0
    2.1762   -1.3501    0.1304 C   0  0  0  0  0  0  0  0  0  0  0  0
    2.7260   -1.4995   -1.2901 C   0  0  0  0  0  0  0  0  0  0  0  0
   -0.9608    1.9145   -0.0358 C   0  0  0  0  0  0  0  0  0  0  0  0
   -0.6040    3.2356   -0.3821 C   0  0  0  0  0  0  0  0  0  0  0  0
   -1.5342    4.0884   -0.9692 C   0  0  0  0  0  0  0  0  0  0  0  0
   -2.8186    3.6241   -1.1994 C   0  0  0  0  0  0  0  0  0  0  0  0
   -3.7229    4.4377   -1.7597 F   0  0  0  0  0  0  0  0  0  0  0  0
   -3.1823    2.3246   -0.8579 C   0  0  0  0  0  0  0  0  0  0  0  0
   -2.2637    1.4281   -0.2741 C   0  0  0  0  0  0  0  0  0  0  0  0
   -2.7631    0.1452   -0.0099 N   0  0  0  0  0  0  0  0  0  0  0  0
   -1.9175   -1.0265   -0.3086 C   0  0  0  0  0  0  0  0  0  0  0  0
   -2.7833   -2.2947   -0.2131 C   0  0  0  0  0  0  0  0  0  0  0  0
   -3.3614   -2.4324    1.0974 O   0  0  0  0  0  0  0  0  0  0  0  0
   -4.1721   -1.2865    1.4134 C   0  0  0  0  0  0  0  0  0  0  0  0
   -3.3752    0.0294    1.3358 C   0  0  0  0  0  0  0  0  0  0  0  0
    1.2109    1.1783   -1.0869 H   0  0  0  0  0  0  0  0  0  0  0  0
    2.4638    0.3663    1.4707 H   0  0  0  0  0  0  0  0  0  0  0  0
    3.4999    1.2053   -1.1678 H   0  0  0  0  0  0  0  0  0  0  0  0
    4.4267    0.8932    0.3101 H   0  0  0  0  0  0  0  0  0  0  0  0
    4.7973   -0.8156   -1.7494 H   0  0  0  0  0  0  0  0  0  0  0  0
    4.9988   -2.7078   -0.1619 H   0  0  0  0  0  0  0  0  0  0  0  0
    5.2617   -1.2968    0.8809 H   0  0  0  0  0  0  0  0  0  0  0  0
    3.2497   -1.8182    2.0000 H   0  0  0  0  0  0  0  0  0  0  0  0
    3.0372   -3.1997    0.9084 H   0  0  0  0  0  0  0  0  0  0  0  0
    1.1606   -1.7220    0.2741 H   0  0  0  0  0  0  0  0  0  0  0  0
    2.7997   -2.5426   -1.6159 H   0  0  0  0  0  0  0  0  0  0  0  0
    2.1712   -0.9224   -2.0368 H   0  0  0  0  0  0  0  0  0  0  0  0
    0.3959    3.6070   -0.1655 H   0  0  0  0  0  0  0  0  0  0  0  0
   -1.2720    5.1079   -1.2326 H   0  0  0  0  0  0  0  0  0  0  0  0
   -4.1984    1.9983   -1.0649 H   0  0  0  0  0  0  0  0  0  0  0  0
   -1.4897   -0.9489   -1.3143 H   0  0  0  0  0  0  0  0  0  0  0  0
   -1.1098   -1.1207    0.4209 H   0  0  0  0  0  0  0  0  0  0  0  0
   -3.5885   -2.2826   -0.9573 H   0  0  0  0  0  0  0  0  0  0  0  0
   -2.1674   -3.1805   -0.3969 H   0  0  0  0  0  0  0  0  0  0  0  0
   -4.5610   -1.4256    2.4270 H   0  0  0  0  0  0  0  0  0  0  0  0
   -5.0273   -1.2641    0.7273 H   0  0  0  0  0  0  0  0  0  0  0  0
   -4.0543    0.8665    1.5363 H   0  0  0  0  0  0  0  0  0  0  0  0
   -2.5923    0.0273    2.1033 H   0  0  0  0  0  0  0  0  0  0  0  0
  1  2  2  0
  2  3  1  0
  3  4  1  0
  4  5  1  0
  5  6  1  0
  6  7  1  0
  7  8  1  0
  8  9  1  0
  9 10  1  0
  2 11  1  0
 11 12  1  0
 12 13  2  0
 13 14  1  0
 14 15  1  0
 14 16  2  0
 16 17  1  0
 17 18  1  0
 18 19  1  0
 19 20  1  0
 20 21  1  0
 21 22  1  0
 22 23  1  0
  9  4  1  0
 17 11  2  0
 23 18  1  0
 10  6  1  0
  3 24  1  0
  4 25  1  0
  5 26  1  0
  5 27  1  0
  6 28  1  0
  7 29  1  0
  7 30  1  0
  8 31  1  0
  8 32  1  0
  9 33  1  0
 10 34  1  0
 10 35  1  0
 12 36  1  0
 13 37  1  0
 16 38  1  0
 19 39  1  0
 19 40  1  0
 20 41  1  0
 20 42  1  0
 22 43  1  0
 22 44  1  0
 23 45  1  0
 23 46  1  0
M  END
$$$$
