flt3_m5_11
     RDKit          3D

 29 32  0  0  0  0  0  0  0  0999 V2000
    4.0082    0.5583    1.4478 O   0  0  0  0  0  0  0  0  0  0  0  0
    4.1824    0.3390    0.2557 C   0  0  0  0  0  0  0  0  0  0  0  0
    3.3055   -0.3473   -0.5670 N   0  0  0  0  0  0  0  0  0  0  0  0
    1.9919   -0.7585   -0.2547 C   0  0  0  0  0  0  0  0  0  0  0  0
    1.4557   -1.7946   -1.0267 C   0  0  0  0  0  0  0  0  0  0  0  0
    0.1624   -2.2677   -0.7797 C   0  0  0  0  0  0  0  0  0  0  0  0
   -0.6277   -1.7074    0.2262 C   0  0  0  0  0  0  0  0  0  0  0  0
   -1.8635   -2.2718    0.3522 O   0  0  0  0  0  0  0  0  0  0  0  0
   -2.7797   -1.7418    1.3125 C   0  0  0  0  0  0  0  0  0  0  0  0
   -3.5574   -0.5177    0.7825 C   0  0  0  0  0  0  0  0  0  0  0  0
   -4.3189   -0.7484   -0.4612 N   0  0  0  0  0  0  0  0  0  0  0  0
   -4.8331    0.5223   -1.0194 C   0  0  0  0  0  0  0  0  0  0  0  0
   -6.0288    1.1320   -0.2483 C   0  0  0  0  0  0  0  0  0  0  0  0
   -7.1428    0.1790   -0.0973 N   0  0  0  0  0  0  0  0  0  0  0  0
   -8.2201    0.7512    0.7043 C   0  0  0  0  0  0  0  0  0  0  0  0
   -6.6628   -1.0875    0.4832 C   0  0  0  0  0  0  0  0  0  0  0  0
   -5.4597   -1.6728   -0.2956 C   0  0  0  0  0  0  0  0  0  0  0  0
   -0.1126   -0.6566    0.9769 C   0  0  0  0  0  0  0  0  0  0  0  0
    1.1801   -0.1840    0.7300 C   0  0  0  0  0  0  0  0  0  0  0  0
    1.5672    0.8988    1.4172 F   0  0  0  0  0  0  0  0  0  0  0  0
    5.4345    0.7226   -0.4141 C   0  0  0  0  0  0  0  0  0  0  0  0
    5.6632    0.8008   -1.7811 C   0  0  0  0  0  0  0  0  0  0  0  0
    6.9554    1.2078   -1.9859 N   0  0  0  0  0  0  0  0  0  0  0  0
    7.5889    1.4064   -0.7839 C   0  0  0  0  0  0  0  0  0  0  0  0
    8.8996    1.8207   -0.5158 C   0  0  0  0  0  0  0  0  0  0  0  0
    9.2794    1.9481    0.8231 C   0  0  0  0  0  0  0  0  0  0  0  0
    8.3819    1.6729    1.8506 C   0  0  0  0  0  0  0  0  0  0  0  0
    7.0759    1.2600    1.5635 C   0  0  0  0  0  0  0  0  0  0  0  0
    6.6627    1.1208    0.2205 C   0  0  0  0  0  0  0  0  0  0  0  0
  1  2  2  0
  2  3  1  0
  3  4  1  0
  4  5  1  0
  5  6  2  0
  6  7  1  0
  7  8  1  0
  8  9  1  0
  9 10  1  0
 10 11  1  0
 11 12  1  0
 12 13  1  0
 13 14  1  0
 14 15  1  0
 14 16  1  0
 16 17  1  0
  7 18  2  0
 18 19  1  0
 19 20  1  0
  2 21  1  0
 21 22  2  0
 22 23  1  0
 23 24  1  0
 24 25  2  0
 25 26  1  0
 26 27  2  0
 27 28  1  0
 28 29  2  0
 19  4  2  0
 29 21  1  0
 17 11  1  0
 29 24  1  0
M  END
>  <gene>  (1) 
FLT3

>  <formula>  (1) 
C22H25FN4O2

>  <clinical_grade>  (1) 
false

>  <fsp3>  (1) 
0.3182

$$$$
