
     RDKit          3D

 58 63  0  0  0  0  0  0  0  0999 V2000
    4.7568    1.1500   -0.8468 O   0  0  0  0  0  0  0  0  0  0  0  0
    4.8447    0.2056   -0.0694 C   0  0  0  0  0  0  0  0  0  0  0  0
    3.7673   -0.4663    0.4764 N   0  0  0  0  0  0  0  0  0  0  0  0
    2.3935   -0.2039    0.2896 C   0  0  0  0  0  0  0  0  0  0  0  0
    1.8785    0.8350   -0.4762 C   0  0  0  0  0  0  0  0  0  0  0  0
    0.4889    1.0042   -0.5914 C   0  0  0  0  0  0  0  0  0  0  0  0
   -0.4394    0.1562    0.0448 C   0  0  0  0  0  0  0  0  0  0  0  0
   -1.9351    0.3625   -0.0976 C   0  0  0  0  0  0  0  0  0  0  0  0
   -3.1315   -0.4689    0.5250 C   0  0  0  0  0  0  0  0  0  0  0  0
   -3.8126    0.6268   -0.2804 C   0  0  0  0  0  0  0  0  0  0  0  0
   -2.8037    0.3659   -1.4116 C   0  0  0  0  0  0  0  0  0  0  0  0
   -2.7922    1.6253    0.2920 C   0  0  0  0  0  0  0  0  0  0  0  0
   -5.1773    0.9360   -0.4998 N   0  0  0  0  0  0  0  0  0  0  0  0
   -5.8990   -0.1345   -1.2090 C   0  0  0  0  0  0  0  0  0  0  0  0
   -6.3884   -1.3096   -0.3291 C   0  0  0  0  0  0  0  0  0  0  0  0
   -7.1306   -0.9179    0.8837 N   0  0  0  0  0  0  0  0  0  0  0  0
   -8.4845   -0.4691    0.5610 C   0  0  0  0  0  0  0  0  0  0  0  0
   -6.3755    0.1220    1.6074 C   0  0  0  0  0  0  0  0  0  0  0  0
   -5.8860    1.3046    0.7378 C   0  0  0  0  0  0  0  0  0  0  0  0
    0.1097   -0.8831    0.8132 C   0  0  0  0  0  0  0  0  0  0  0  0
    1.4896   -1.0543    0.9299 C   0  0  0  0  0  0  0  0  0  0  0  0
    1.9542   -2.0670    1.6808 F   0  0  0  0  0  0  0  0  0  0  0  0
    6.1566   -0.3156    0.3484 C   0  0  0  0  0  0  0  0  0  0  0  0
    6.4228   -1.2363    1.3529 C   0  0  0  0  0  0  0  0  0  0  0  0
    7.7769   -1.4395    1.4156 N   0  0  0  0  0  0  0  0  0  0  0  0
    8.4189   -0.6693    0.4785 C   0  0  0  0  0  0  0  0  0  0  0  0
    9.7849   -0.5566    0.1907 C   0  0  0  0  0  0  0  0  0  0  0  0
   10.1638    0.3201   -0.8292 C   0  0  0  0  0  0  0  0  0  0  0  0
    9.2124    1.0539   -1.5311 C   0  0  0  0  0  0  0  0  0  0  0  0
    7.8516    0.9280   -1.2294 C   0  0  0  0  0  0  0  0  0  0  0  0
    7.4364    0.0500   -0.2038 C   0  0  0  0  0  0  0  0  0  0  0  0
    3.9651   -1.2672    1.0609 H   0  0  0  0  0  0  0  0  0  0  0  0
    2.5204    1.5371   -0.9992 H   0  0  0  0  0  0  0  0  0  0  0  0
    0.1202    1.8298   -1.2011 H   0  0  0  0  0  0  0  0  0  0  0  0
   -3.2345   -1.5019    0.1783 H   0  0  0  0  0  0  0  0  0  0  0  0
   -3.2249   -0.4398    1.6151 H   0  0  0  0  0  0  0  0  0  0  0  0
   -2.6230    1.1747   -2.1279 H   0  0  0  0  0  0  0  0  0  0  0  0
   -2.8768   -0.5841   -1.9516 H   0  0  0  0  0  0  0  0  0  0  0  0
   -2.6105    2.5461   -0.2727 H   0  0  0  0  0  0  0  0  0  0  0  0
   -2.8546    1.8633    1.3592 H   0  0  0  0  0  0  0  0  0  0  0  0
   -5.3021   -0.5290   -2.0399 H   0  0  0  0  0  0  0  0  0  0  0  0
   -6.7733    0.3251   -1.6882 H   0  0  0  0  0  0  0  0  0  0  0  0
   -6.9974   -1.9894   -0.9384 H   0  0  0  0  0  0  0  0  0  0  0  0
   -5.5242   -1.9058   -0.0146 H   0  0  0  0  0  0  0  0  0  0  0  0
   -9.0435   -1.2717    0.0670 H   0  0  0  0  0  0  0  0  0  0  0  0
   -9.0342   -0.2288    1.4780 H   0  0  0  0  0  0  0  0  0  0  0  0
   -8.5080    0.4110   -0.0893 H   0  0  0  0  0  0  0  0  0  0  0  0
   -6.9749    0.5089    2.4412 H   0  0  0  0  0  0  0  0  0  0  0  0
   -5.5103   -0.3591    2.0777 H   0  0  0  0  0  0  0  0  0  0  0  0
   -6.7590    1.9032    0.4466 H   0  0  0  0  0  0  0  0  0  0  0  0
   -5.2794    1.9795    1.3535 H   0  0  0  0  0  0  0  0  0  0  0  0
   -0.5418   -1.5791    1.3355 H   0  0  0  0  0  0  0  0  0  0  0  0
    5.7795   -1.7628    2.0442 H   0  0  0  0  0  0  0  0  0  0  0  0
    8.2455   -2.0598    2.0619 H   0  0  0  0  0  0  0  0  0  0  0  0
   10.5299   -1.1262    0.7366 H   0  0  0  0  0  0  0  0  0  0  0  0
   11.2170    0.4310   -1.0769 H   0  0  0  0  0  0  0  0  0  0  0  0
    9.5242    1.7325   -2.3212 H   0  0  0  0  0  0  0  0  0  0  0  0
    7.1188    1.5081   -1.7851 H   0  0  0  0  0  0  0  0  0  0  0  0
  1  2  2  0
  2  3  1  0
  3  4  1  0
  4  5  1  0
  5  6  2  0
  6  7  1  0
  7  8  1  0
  8  9  1  0
  9 10  1  0
 10 11  1  0
 10 12  1  0
 10 13  1  0
 13 14  1  0
 14 15  1  0
 15 16  1  0
 16 17  1  0
 16 18  1  0
 18 19  1  0
  7 20  2  0
 20 21  1  0
 21 22  1  0
  2 23  1  0
 23 24  2  0
 24 25  1  0
 25 26  1  0
 26 27  2  0
 27 28  1  0
 28 29  2  0
 29 30  1  0
 30 31  2  0
 21  4  2  0
 31 23  1  0
 11  8  1  0
 19 13  1  0
 31 26  1  0
 12  8  1  0
  3 32  1  0
  5 33  1  0
  6 34  1  0
  9 35  1  0
  9 36  1  0
 11 37  1  0
 11 38  1  0
 12 39  1  0
 12 40  1  0
 14 41  1  0
 14 42  1  0
 15 43  1  0
 15 44  1  0
 17 45  1  0
 17 46  1  0
 17 47  1  0
 18 48  1  0
 18 49  1  0
 19 50  1  0
 19 51  1  0
 20 52  1  0
 24 53  1  0
 25 54  1  0
 27 55  1  0
 28 56  1  0
 29 57  1  0
 30 58  1  0
M  END
$$$$
