
     RDKit          3D

 61 65  0  0  0  0  0  0  0  0999 V2000
    7.3327   -1.9857    1.8547 O   0  0  0  0  0  0  0  0  0  0  0  0
    6.7744   -1.0811    1.2564 C   0  0  0  0  0  0  0  0  0  0  0  0
    5.3821   -0.9306    1.1860 N   0  0  0  0  0  0  0  0  0  0  0  0
    4.3331   -2.0030    1.9221 S   0  0  0  0  0  0  0  0  0  0  0  0
    4.4070   -1.8249    3.3546 O   0  0  0  0  0  0  0  0  0  0  0  0
    4.4556   -3.2938    1.2832 O   0  0  0  0  0  0  0  0  0  0  0  0
    2.7764   -1.3148    1.3924 C   0  0  0  0  0  0  0  0  0  0  0  0
    2.1383   -0.3618    2.1860 C   0  0  0  0  0  0  0  0  0  0  0  0
    0.9277    0.1840    1.7570 C   0  0  0  0  0  0  0  0  0  0  0  0
    0.3444   -0.2183    0.5421 C   0  0  0  0  0  0  0  0  0  0  0  0
   -0.8769    0.3278    0.0960 C   0  0  0  0  0  0  0  0  0  0  0  0
   -1.4896   -0.0628   -1.1062 C   0  0  0  0  0  0  0  0  0  0  0  0
   -2.6918    0.4769   -1.5480 N   0  0  0  0  0  0  0  0  0  0  0  0
   -3.2425    1.7201   -1.0175 C   0  0  0  0  0  0  0  0  0  0  0  0
   -4.3956    1.4109   -0.0601 C   0  0  0  0  0  0  0  0  0  0  0  0
   -5.4208    0.3861   -0.6426 C   0  0  0  0  0  0  0  0  0  0  0  0
   -5.4052   -0.9232    0.1907 C   0  0  0  0  0  0  0  0  0  0  0  0
   -6.0450   -0.7538    1.5664 C   0  0  0  0  0  0  0  0  0  0  0  0
   -7.3708   -0.2436    1.4501 O   0  0  0  0  0  0  0  0  0  0  0  0
   -7.3981    1.0418    0.8363 C   0  0  0  0  0  0  0  0  0  0  0  0
   -6.8559    0.9654   -0.5870 C   0  0  0  0  0  0  0  0  0  0  0  0
   -5.0705    0.0725   -2.1216 C   0  0  0  0  0  0  0  0  0  0  0  0
   -3.6162   -0.3774   -2.3050 C   0  0  0  0  0  0  0  0  0  0  0  0
   -0.8153   -1.0358   -1.8604 C   0  0  0  0  0  0  0  0  0  0  0  0
    0.3986   -1.5959   -1.4435 C   0  0  0  0  0  0  0  0  0  0  0  0
    0.9913   -1.1953   -0.2435 C   0  0  0  0  0  0  0  0  0  0  0  0
    2.2077   -1.7438    0.1898 C   0  0  0  0  0  0  0  0  0  0  0  0
    7.5684   -0.0493    0.5306 C   0  0  0  0  0  0  0  0  0  0  0  0
    8.8696   -0.3855    0.1261 C   0  0  0  0  0  0  0  0  0  0  0  0
    9.6539    0.5355   -0.5742 C   0  0  0  0  0  0  0  0  0  0  0  0
    9.1418    1.7971   -0.8679 C   0  0  0  0  0  0  0  0  0  0  0  0
   10.1042    2.9327   -1.7286 Cl  0  0  0  0  0  0  0  0  0  0  0  0
    7.8542    2.1474   -0.4627 C   0  0  0  0  0  0  0  0  0  0  0  0
    7.0656    1.2273    0.2375 C   0  0  0  0  0  0  0  0  0  0  0  0
    4.9552   -0.2966    0.5223 H   0  0  0  0  0  0  0  0  0  0  0  0
    2.5681   -0.0440    3.1339 H   0  0  0  0  0  0  0  0  0  0  0  0
    0.4347    0.9260    2.3827 H   0  0  0  0  0  0  0  0  0  0  0  0
   -1.3652    1.0571    0.7358 H   0  0  0  0  0  0  0  0  0  0  0  0
   -3.6121    2.3282   -1.8535 H   0  0  0  0  0  0  0  0  0  0  0  0
   -2.4927    2.3529   -0.5304 H   0  0  0  0  0  0  0  0  0  0  0  0
   -4.8859    2.3599    0.1881 H   0  0  0  0  0  0  0  0  0  0  0  0
   -3.9719    1.0375    0.8796 H   0  0  0  0  0  0  0  0  0  0  0  0
   -4.3851   -1.3059    0.3091 H   0  0  0  0  0  0  0  0  0  0  0  0
   -5.9742   -1.6901   -0.3518 H   0  0  0  0  0  0  0  0  0  0  0  0
   -5.4569   -0.0964    2.2160 H   0  0  0  0  0  0  0  0  0  0  0  0
   -6.1078   -1.7272    2.0638 H   0  0  0  0  0  0  0  0  0  0  0  0
   -8.4403    1.3765    0.8152 H   0  0  0  0  0  0  0  0  0  0  0  0
   -6.8391    1.7553    1.4519 H   0  0  0  0  0  0  0  0  0  0  0  0
   -6.8934    1.9563   -1.0549 H   0  0  0  0  0  0  0  0  0  0  0  0
   -7.5213    0.3124   -1.1677 H   0  0  0  0  0  0  0  0  0  0  0  0
   -5.2492    0.9656   -2.7357 H   0  0  0  0  0  0  0  0  0  0  0  0
   -5.7371   -0.7013   -2.5232 H   0  0  0  0  0  0  0  0  0  0  0  0
   -3.5390   -1.4214   -1.9756 H   0  0  0  0  0  0  0  0  0  0  0  0
   -3.3609   -0.3466   -3.3707 H   0  0  0  0  0  0  0  0  0  0  0  0
   -1.2193   -1.3656   -2.8143 H   0  0  0  0  0  0  0  0  0  0  0  0
    0.8712   -2.3461   -2.0738 H   0  0  0  0  0  0  0  0  0  0  0  0
    2.7060   -2.5066   -0.4066 H   0  0  0  0  0  0  0  0  0  0  0  0
    9.2781   -1.3698    0.3537 H   0  0  0  0  0  0  0  0  0  0  0  0
   10.6599    0.2617   -0.8833 H   0  0  0  0  0  0  0  0  0  0  0  0
    7.4635    3.1389   -0.6806 H   0  0  0  0  0  0  0  0  0  0  0  0
    6.0821    1.5436    0.5725 H   0  0  0  0  0  0  0  0  0  0  0  0
  1  2  2  0
  2  3  1  0
  3  4  1  0
  4  5  2  0
  4  6  2  0
  4  7  1  0
  7  8  2  0
  8  9  1  0
  9 10  2  0
 10 11  1  0
 11 12  2  0
 12 13  1  0
 13 14  1  0
 14 15  1  0
 15 16  1  0
 16 17  1  0
 17 18  1  0
 18 19  1  0
 19 20  1  0
 20 21  1  0
 16 22  1  0
 22 23  1  0
 12 24  1  0
 24 25  2  0
 25 26  1  0
 26 27  2  0
  2 28  1  0
 28 29  1  0
 29 30  2  0
 30 31  1  0
 31 32  1  0
 31 33  2  0
 33 34  1  0
 27  7  1  0
 34 28  2  0
 26 10  1  0
 23 13  1  0
 21 16  1  0
  3 35  1  0
  8 36  1  0
  9 37  1  0
 11 38  1  0
 14 39  1  0
 14 40  1  0
 15 41  1  0
 15 42  1  0
 17 43  1  0
 17 44  1  0
 18 45  1  0
 18 46  1  0
 20 47  1  0
 20 48  1  0
 21 49  1  0
 21 50  1  0
 22 51  1  0
 22 52  1  0
 23 53  1  0
 23 54  1  0
 24 55  1  0
 25 56  1  0
 27 57  1  0
 29 58  1  0
 30 59  1  0
 33 60  1  0
 34 61  1  0
M  END
$$$$
