
     RDKit          3D

 38 40  0  0  0  0  0  0  0  0999 V2000
   -0.3147   -3.2066    0.8138 C   0  0  0  0  0  0  0  0  0  0  0  0
   -0.3035   -1.7264    0.5964 C   0  0  0  0  0  0  0  0  0  0  0  0
    0.8852   -1.1409    0.3907 N   0  0  0  0  0  0  0  0  0  0  0  0
    0.8968    0.1886    0.2271 C   0  0  0  0  0  0  0  0  0  0  0  0
    2.1064    0.8970    0.0174 N   0  0  0  0  0  0  0  0  0  0  0  0
    3.4372    0.4339    0.1162 C   0  0  0  0  0  0  0  0  0  0  0  0
    3.8173   -0.6282    0.9441 C   0  0  0  0  0  0  0  0  0  0  0  0
    5.1574   -1.0126    1.0590 C   0  0  0  0  0  0  0  0  0  0  0  0
    6.1450   -0.3216    0.3633 C   0  0  0  0  0  0  0  0  0  0  0  0
    5.7935    0.7605   -0.4376 C   0  0  0  0  0  0  0  0  0  0  0  0
    4.4525    1.1406   -0.5493 C   0  0  0  0  0  0  0  0  0  0  0  0
   -0.2745    0.9236    0.2810 C   0  0  0  0  0  0  0  0  0  0  0  0
   -1.4644    0.2502    0.4985 C   0  0  0  0  0  0  0  0  0  0  0  0
   -2.6699    0.9817    0.5556 N   0  0  0  0  0  0  0  0  0  0  0  0
   -3.8198    0.2302    1.1122 C   0  0  0  0  0  0  0  0  0  0  0  0
   -4.6920   -0.3420   -0.0138 C   0  0  0  0  0  0  0  0  0  0  0  0
   -5.2523    0.6729   -0.8688 O   0  0  0  0  0  0  0  0  0  0  0  0
   -4.4808    1.8844   -0.8891 C   0  0  0  0  0  0  0  0  0  0  0  0
   -2.9710    1.6387   -0.7409 C   0  0  0  0  0  0  0  0  0  0  0  0
   -1.4791   -1.0803    0.6625 N   0  0  0  0  0  0  0  0  0  0  0  0
   -1.2606   -3.6390    0.4735 H   0  0  0  0  0  0  0  0  0  0  0  0
   -0.1904   -3.4232    1.8787 H   0  0  0  0  0  0  0  0  0  0  0  0
    0.4990   -3.6838    0.2591 H   0  0  0  0  0  0  0  0  0  0  0  0
    1.9932    1.5460   -0.7526 H   0  0  0  0  0  0  0  0  0  0  0  0
    3.0742   -1.1705    1.5219 H   0  0  0  0  0  0  0  0  0  0  0  0
    5.4244   -1.8481    1.7004 H   0  0  0  0  0  0  0  0  0  0  0  0
    7.1860   -0.6193    0.4548 H   0  0  0  0  0  0  0  0  0  0  0  0
    6.5613    1.3141   -0.9712 H   0  0  0  0  0  0  0  0  0  0  0  0
    4.2084    1.9991   -1.1694 H   0  0  0  0  0  0  0  0  0  0  0  0
   -0.2585    2.0014    0.1908 H   0  0  0  0  0  0  0  0  0  0  0  0
   -4.4173    0.9433    1.6945 H   0  0  0  0  0  0  0  0  0  0  0  0
   -3.5206   -0.5527    1.8187 H   0  0  0  0  0  0  0  0  0  0  0  0
   -5.5289   -0.9078    0.4074 H   0  0  0  0  0  0  0  0  0  0  0  0
   -4.1164   -1.0271   -0.6463 H   0  0  0  0  0  0  0  0  0  0  0  0
   -4.8496    2.5351   -0.0876 H   0  0  0  0  0  0  0  0  0  0  0  0
   -4.6884    2.3879   -1.8387 H   0  0  0  0  0  0  0  0  0  0  0  0
   -2.6451    1.0055   -1.5775 H   0  0  0  0  0  0  0  0  0  0  0  0
   -2.4403    2.5955   -0.8001 H   0  0  0  0  0  0  0  0  0  0  0  0
  1  2  1  0
  2  3  2  0
  3  4  1  0
  4  5  1  0
  5  6  1  0
  6  7  2  0
  7  8  1  0
  8  9  2  0
  9 10  1  0
 10 11  2  0
  4 12  2  0
 12 13  1  0
 13 14  1  0
 14 15  1  0
 15 16  1  0
 16 17  1  0
 17 18  1  0
 18 19  1  0
 13 20  2  0
 20  2  1  0
 11  6  1  0
 19 14  1  0
  1 21  1  0
  1 22  1  0
  1 23  1  0
  5 24  1  0
  7 25  1  0
  8 26  1  0
  9 27  1  0
 10 28  1  0
 11 29  1  0
 12 30  1  0
 15 31  1  0
 15 32  1  0
 16 33  1  0
 16 34  1  0
 18 35  1  0
 18 36  1  0
 19 37  1  0
 19 38  1  0
M  END
>  <gene>  (1) 
AKT1

>  <candidate_id>  (1) 
akt_morpholino_pyrimidine

>  <smiles>  (1) 
Cc1nc(Nc2ccccc2)cc(N3CCOCC3)n1

>  <chemical_sanity_pass>  (1) 
True

>  <clinical_grade>  (1) 
False

$$$$
