
     RDKit          3D

 32 33  0  0  0  0  0  0  0  0999 V2000
   -0.7943    1.8639    0.2599 O   0  0  0  0  0  0  0  0  0  0  0  0
   -1.3915    0.9577   -0.2986 C   0  0  0  0  0  0  0  0  0  0  0  0
   -0.9319    0.3253   -1.4588 N   0  0  0  0  0  0  0  0  0  0  0  0
    0.4536    0.7338   -2.2832 S   0  0  0  0  0  0  0  0  0  0  0  0
    0.5000    2.1633   -2.4876 O   0  0  0  0  0  0  0  0  0  0  0  0
    0.4933   -0.1746   -3.4127 O   0  0  0  0  0  0  0  0  0  0  0  0
    1.7444    0.2517   -1.1672 C   0  0  0  0  0  0  0  0  0  0  0  0
    2.2751    1.1881   -0.2780 C   0  0  0  0  0  0  0  0  0  0  0  0
    3.3083    0.8134    0.5824 C   0  0  0  0  0  0  0  0  0  0  0  0
    3.8310   -0.4863    0.5416 C   0  0  0  0  0  0  0  0  0  0  0  0
    4.9213   -0.8931    1.4893 C   0  0  0  0  0  0  0  0  0  0  0  0
    3.2912   -1.4157   -0.3581 C   0  0  0  0  0  0  0  0  0  0  0  0
    2.2561   -1.0477   -1.2198 C   0  0  0  0  0  0  0  0  0  0  0  0
   -2.6805    0.4474    0.2480 C   0  0  0  0  0  0  0  0  0  0  0  0
   -3.1706   -0.8368   -0.0296 C   0  0  0  0  0  0  0  0  0  0  0  0
   -4.3962   -1.2487    0.5017 C   0  0  0  0  0  0  0  0  0  0  0  0
   -5.1354   -0.3863    1.3105 C   0  0  0  0  0  0  0  0  0  0  0  0
   -4.6509    0.8882    1.5978 C   0  0  0  0  0  0  0  0  0  0  0  0
   -3.4269    1.3038    1.0708 C   0  0  0  0  0  0  0  0  0  0  0  0
   -1.4829   -0.3570   -1.9646 H   0  0  0  0  0  0  0  0  0  0  0  0
    1.8819    2.2028   -0.2407 H   0  0  0  0  0  0  0  0  0  0  0  0
    3.7049    1.5449    1.2836 H   0  0  0  0  0  0  0  0  0  0  0  0
    4.4860   -1.2782    2.4165 H   0  0  0  0  0  0  0  0  0  0  0  0
    5.5688   -0.0428    1.7279 H   0  0  0  0  0  0  0  0  0  0  0  0
    5.5547   -1.6688    1.0462 H   0  0  0  0  0  0  0  0  0  0  0  0
    3.6813   -2.4307   -0.3971 H   0  0  0  0  0  0  0  0  0  0  0  0
    1.8618   -1.7746   -1.9258 H   0  0  0  0  0  0  0  0  0  0  0  0
   -2.6077   -1.5475   -0.6266 H   0  0  0  0  0  0  0  0  0  0  0  0
   -4.7733   -2.2473    0.2916 H   0  0  0  0  0  0  0  0  0  0  0  0
   -6.0881   -0.7103    1.7234 H   0  0  0  0  0  0  0  0  0  0  0  0
   -5.2247    1.5593    2.2328 H   0  0  0  0  0  0  0  0  0  0  0  0
   -3.0590    2.3027    1.3015 H   0  0  0  0  0  0  0  0  0  0  0  0
  1  2  2  0
  2  3  1  0
  3  4  1  0
  4  5  2  0
  4  6  2  0
  4  7  1  0
  7  8  1  0
  8  9  2  0
  9 10  1  0
 10 11  1  0
 10 12  2  0
 12 13  1  0
  2 14  1  0
 14 15  2  0
 15 16  1  0
 16 17  2  0
 17 18  1  0
 18 19  2  0
 13  7  2  0
 19 14  1  0
  3 20  1  0
  8 21  1  0
  9 22  1  0
 11 23  1  0
 11 24  1  0
 11 25  1  0
 12 26  1  0
 13 27  1  0
 15 28  1  0
 16 29  1  0
 17 30  1  0
 18 31  1  0
 19 32  1  0
M  END
>  <gene>  (1) 
BCL2

>  <candidate_id>  (1) 
bcl2_sulfonylbenzamide

>  <smiles>  (1) 
O=C(NS(=O)(=O)c1ccc(C)cc1)c1ccccc1

>  <chemical_sanity_pass>  (1) 
True

>  <clinical_grade>  (1) 
False

$$$$
