
     RDKit          3D

 28 30  0  0  0  0  0  0  0  0999 V2000
   -6.0128   -0.6551    0.0192 F   0  0  0  0  0  0  0  0  0  0  0  0
   -4.6994   -0.4329    0.1582 C   0  0  0  0  0  0  0  0  0  0  0  0
   -3.8130   -0.9511   -0.7747 C   0  0  0  0  0  0  0  0  0  0  0  0
   -2.4428   -0.7143   -0.6297 C   0  0  0  0  0  0  0  0  0  0  0  0
   -1.9467    0.0171    0.4589 C   0  0  0  0  0  0  0  0  0  0  0  0
   -0.5781    0.3364    0.6035 N   0  0  0  0  0  0  0  0  0  0  0  0
    0.5543   -0.3967    0.1511 C   0  0  0  0  0  0  0  0  0  0  0  0
    0.3978   -1.6713   -0.2504 N   0  0  0  0  0  0  0  0  0  0  0  0
    1.5001   -2.3247   -0.6263 C   0  0  0  0  0  0  0  0  0  0  0  0
    2.7437   -1.8349   -0.6429 N   0  0  0  0  0  0  0  0  0  0  0  0
    2.8916   -0.5646   -0.2581 C   0  0  0  0  0  0  0  0  0  0  0  0
    4.1670   -0.0123   -0.2702 C   0  0  0  0  0  0  0  0  0  0  0  0
    4.4045    1.3116    0.1084 C   0  0  0  0  0  0  0  0  0  0  0  0
    3.3449    2.1140    0.5065 C   0  0  0  0  0  0  0  0  0  0  0  0
    2.0570    1.5828    0.5294 C   0  0  0  0  0  0  0  0  0  0  0  0
    1.8160    0.2342    0.1558 C   0  0  0  0  0  0  0  0  0  0  0  0
   -2.8718    0.5600    1.3678 C   0  0  0  0  0  0  0  0  0  0  0  0
   -4.2425    0.3260    1.2264 C   0  0  0  0  0  0  0  0  0  0  0  0
   -4.1872   -1.5283   -1.6136 H   0  0  0  0  0  0  0  0  0  0  0  0
   -1.7663   -1.1052   -1.3851 H   0  0  0  0  0  0  0  0  0  0  0  0
   -0.3760    0.7000    1.5290 H   0  0  0  0  0  0  0  0  0  0  0  0
    1.3742   -3.3534   -0.9463 H   0  0  0  0  0  0  0  0  0  0  0  0
    5.0034   -0.6315   -0.5884 H   0  0  0  0  0  0  0  0  0  0  0  0
    5.4157    1.7099    0.0825 H   0  0  0  0  0  0  0  0  0  0  0  0
    3.5172    3.1489    0.7910 H   0  0  0  0  0  0  0  0  0  0  0  0
    1.2339    2.2304    0.8227 H   0  0  0  0  0  0  0  0  0  0  0  0
   -2.5324    1.1696    2.2012 H   0  0  0  0  0  0  0  0  0  0  0  0
   -4.9523    0.7356    1.9373 H   0  0  0  0  0  0  0  0  0  0  0  0
  1  2  1  0
  2  3  1  0
  3  4  2  0
  4  5  1  0
  5  6  1  0
  6  7  1  0
  7  8  1  0
  8  9  2  0
  9 10  1  0
 10 11  2  0
 11 12  1  0
 12 13  2  0
 13 14  1  0
 14 15  2  0
 15 16  1  0
  5 17  2  0
 17 18  1  0
 18  2  2  0
 16  7  2  0
 16 11  1  0
  3 19  1  0
  4 20  1  0
  6 21  1  0
  9 22  1  0
 12 23  1  0
 13 24  1  0
 14 25  1  0
 15 26  1  0
 17 27  1  0
 18 28  1  0
M  END
>  <gene>  (1) 
EGFR

>  <candidate_id>  (1) 
egfr_anilinoquinazoline

>  <smiles>  (1) 
Fc1ccc(Nc2ncnc3ccccc23)cc1

>  <chemical_sanity_pass>  (1) 
True

>  <clinical_grade>  (1) 
False

$$$$
