
     RDKit          3D

 42 45  0  0  0  0  0  0  0  0999 V2000
   60.9680   52.6503   50.9505 O   0  0  0  0  0  0  0  0  0  0  0  0
   61.3550   52.6664   49.7752 C   0  0  0  0  0  0  0  0  0  0  0  0
   60.4086   52.3359   48.5809 C   0  0  0  0  0  0  0  0  0  0  0  0
   58.8904   52.1309   48.9019 C   0  0  0  0  0  0  0  0  0  0  0  0
   58.6577   53.5212   48.3639 C   0  0  0  0  0  0  0  0  0  0  0  0
   58.3510   54.6251   49.3540 C   0  0  0  0  0  0  0  0  0  0  0  0
   56.8761   54.5027   48.8925 C   0  0  0  0  0  0  0  0  0  0  0  0
   57.3893   53.8124   47.6027 C   0  0  0  0  0  0  0  0  0  0  0  0
   59.9833   53.5224   47.6558 C   0  0  0  0  0  0  0  0  0  0  0  0
   62.6823   52.9917   49.4708 N   0  0  0  0  0  0  0  0  0  0  0  0
   63.2460   52.9697   48.1200 C   0  0  0  0  0  0  0  0  0  0  0  0
   64.7477   52.7273   48.1467 C   0  0  0  0  0  0  0  0  0  0  0  0
   65.4629   53.8176   48.9492 C   0  0  0  0  0  0  0  0  0  0  0  0
   64.6115   54.3985   50.0828 C   0  0  0  0  0  0  0  0  0  0  0  0
   63.5764   53.3908   50.5595 C   0  0  0  0  0  0  0  0  0  0  0  0
   65.8230   54.8874   48.0516 O   0  0  0  0  0  0  0  0  0  0  0  0
   67.1935   55.1613   48.3401 C   0  0  0  0  0  0  0  0  0  0  0  0
   67.7308   53.8179   48.7457 C   0  0  0  0  0  0  0  0  0  0  0  0
   66.6656   53.2562   49.5113 O   0  0  0  0  0  0  0  0  0  0  0  0
   60.7871   51.4715   48.0187 H   0  0  0  0  0  0  0  0  0  0  0  0
   58.4331   51.3308   48.3072 H   0  0  0  0  0  0  0  0  0  0  0  0
   58.6335   51.9628   49.9516 H   0  0  0  0  0  0  0  0  0  0  0  0
   58.5283   54.4123   50.4115 H   0  0  0  0  0  0  0  0  0  0  0  0
   58.8013   55.5936   49.1078 H   0  0  0  0  0  0  0  0  0  0  0  0
   56.2705   53.8475   49.5292 H   0  0  0  0  0  0  0  0  0  0  0  0
   56.3460   55.4471   48.7453 H   0  0  0  0  0  0  0  0  0  0  0  0
   57.5169   54.5043   46.7622 H   0  0  0  0  0  0  0  0  0  0  0  0
   56.8030   52.9528   47.2676 H   0  0  0  0  0  0  0  0  0  0  0  0
   59.9353   53.2448   46.5964 H   0  0  0  0  0  0  0  0  0  0  0  0
   60.5721   54.4395   47.7475 H   0  0  0  0  0  0  0  0  0  0  0  0
   62.7644   52.1907   47.5241 H   0  0  0  0  0  0  0  0  0  0  0  0
   63.0189   53.9347   47.6527 H   0  0  0  0  0  0  0  0  0  0  0  0
   65.1317   52.6918   47.1201 H   0  0  0  0  0  0  0  0  0  0  0  0
   64.9450   51.7426   48.5905 H   0  0  0  0  0  0  0  0  0  0  0  0
   64.0938   55.3034   49.7382 H   0  0  0  0  0  0  0  0  0  0  0  0
   65.2452   54.6990   50.9257 H   0  0  0  0  0  0  0  0  0  0  0  0
   62.9983   53.8213   51.3841 H   0  0  0  0  0  0  0  0  0  0  0  0
   64.0598   52.4821   50.9374 H   0  0  0  0  0  0  0  0  0  0  0  0
   67.6959   55.5852   47.4673 H   0  0  0  0  0  0  0  0  0  0  0  0
   67.2318   55.8791   49.1666 H   0  0  0  0  0  0  0  0  0  0  0  0
   68.6459   53.8766   49.3399 H   0  0  0  0  0  0  0  0  0  0  0  0
   67.9019   53.1726   47.8772 H   0  0  0  0  0  0  0  0  0  0  0  0
  1  2  2  0
  2  3  1  0
  3  4  1  0
  4  5  1  0
  5  6  1  0
  6  7  1  0
  7  8  1  0
  5  9  1  0
  2 10  1  0
 10 11  1  0
 11 12  1  0
 12 13  1  0
 13 14  1  0
 14 15  1  0
 13 16  1  0
 16 17  1  0
 17 18  1  0
 18 19  1  0
  9  3  1  0
 15 10  1  0
  8  5  1  0
 19 13  1  0
  3 20  1  0
  4 21  1  0
  4 22  1  0
  6 23  1  0
  6 24  1  0
  7 25  1  0
  7 26  1  0
  8 27  1  0
  8 28  1  0
  9 29  1  0
  9 30  1  0
 11 31  1  0
 11 32  1  0
 12 33  1  0
 12 34  1  0
 14 35  1  0
 14 36  1  0
 15 37  1  0
 15 38  1  0
 17 39  1  0
 17 40  1  0
 18 41  1  0
 18 42  1  0
M  END
$$$$
