
     RDKit          3D

 38 40  0  0  0  0  0  0  0  0999 V2000
   59.8606   54.7097   48.6821 O   0  0  0  0  0  0  0  0  0  0  0  0
   61.0024   54.8869   48.2689 C   0  0  0  0  0  0  0  0  0  0  0  0
   61.4697   56.2494   47.7418 C   0  0  0  0  0  0  0  0  0  0  0  0
   62.9242   56.4190   47.9604 N   0  0  0  0  0  0  0  0  0  0  0  0
   63.3388   57.7868   47.5437 C   0  0  0  0  0  0  0  0  0  0  0  0
   64.2070   57.8357   48.8148 C   0  0  0  0  0  0  0  0  0  0  0  0
   63.1950   56.8176   49.3725 C   0  0  0  0  0  0  0  0  0  0  0  0
   61.9648   53.9019   48.1803 N   0  0  0  0  0  0  0  0  0  0  0  0
   61.8405   52.5472   48.7089 C   0  0  0  0  0  0  0  0  0  0  0  0
   61.6629   52.5441   50.2453 C   0  0  0  0  0  0  0  0  0  0  0  0
   61.5834   51.1069   50.7794 C   0  0  0  0  0  0  0  0  0  0  0  0
   61.7275   50.0964   49.6311 C   0  0  0  0  0  0  0  0  0  0  0  0
   63.0734   50.3339   48.9337 C   0  0  0  0  0  0  0  0  0  0  0  0
   63.1393   51.7639   48.3843 C   0  0  0  0  0  0  0  0  0  0  0  0
   60.6013   50.3353   48.6144 C   0  0  0  0  0  0  0  0  0  0  0  0
   60.6624   51.7706   48.0722 C   0  0  0  0  0  0  0  0  0  0  0  0
   60.8729   57.0326   48.2253 H   0  0  0  0  0  0  0  0  0  0  0  0
   61.2564   56.2671   46.6667 H   0  0  0  0  0  0  0  0  0  0  0  0
   62.5454   58.5450   47.5245 H   0  0  0  0  0  0  0  0  0  0  0  0
   63.8910   57.8286   46.6006 H   0  0  0  0  0  0  0  0  0  0  0  0
   64.2597   58.7981   49.3289 H   0  0  0  0  0  0  0  0  0  0  0  0
   65.2192   57.4360   48.6827 H   0  0  0  0  0  0  0  0  0  0  0  0
   63.6256   56.0279   49.9951 H   0  0  0  0  0  0  0  0  0  0  0  0
   62.3604   57.2808   49.9139 H   0  0  0  0  0  0  0  0  0  0  0  0
   62.8972   54.2724   48.0062 H   0  0  0  0  0  0  0  0  0  0  0  0
   60.7564   53.0865   50.5391 H   0  0  0  0  0  0  0  0  0  0  0  0
   62.4972   53.0713   50.7259 H   0  0  0  0  0  0  0  0  0  0  0  0
   60.6274   50.9566   51.2954 H   0  0  0  0  0  0  0  0  0  0  0  0
   62.3700   50.9463   51.5265 H   0  0  0  0  0  0  0  0  0  0  0  0
   61.6766   49.0733   50.0188 H   0  0  0  0  0  0  0  0  0  0  0  0
   63.2095   49.6159   48.1160 H   0  0  0  0  0  0  0  0  0  0  0  0
   63.8988   50.1678   49.6363 H   0  0  0  0  0  0  0  0  0  0  0  0
   63.3063   51.7346   47.2995 H   0  0  0  0  0  0  0  0  0  0  0  0
   64.0123   52.2778   48.8078 H   0  0  0  0  0  0  0  0  0  0  0  0
   60.6820   49.6226   47.7848 H   0  0  0  0  0  0  0  0  0  0  0  0
   59.6260   50.1586   49.0840 H   0  0  0  0  0  0  0  0  0  0  0  0
   59.7044   52.2632   48.2730 H   0  0  0  0  0  0  0  0  0  0  0  0
   60.7661   51.7492   46.9797 H   0  0  0  0  0  0  0  0  0  0  0  0
  1  2  2  0
  2  3  1  0
  3  4  1  0
  4  5  1  0
  5  6  1  0
  6  7  1  0
  2  8  1  0
  8  9  1  0
  9 10  1  0
 10 11  1  0
 11 12  1  0
 12 13  1  0
 13 14  1  0
 12 15  1  0
 15 16  1  0
  7  4  1  0
 14  9  1  0
 16  9  1  0
  3 17  1  0
  3 18  1  0
  5 19  1  0
  5 20  1  0
  6 21  1  0
  6 22  1  0
  7 23  1  0
  7 24  1  0
  8 25  1  0
 10 26  1  0
 10 27  1  0
 11 28  1  0
 11 29  1  0
 12 30  1  0
 13 31  1  0
 13 32  1  0
 14 33  1  0
 14 34  1  0
 15 35  1  0
 15 36  1  0
 16 37  1  0
 16 38  1  0
M  END
$$$$
