
     RDKit          3D

 35 37  0  0  0  0  0  0  0  0999 V2000
   61.9632   53.4406   48.0114 O   0  0  0  0  0  0  0  0  0  0  0  0
   61.1629   54.1394   48.6267 C   0  0  0  0  0  0  0  0  0  0  0  0
   59.8434   53.5867   49.1765 C   0  0  0  0  0  0  0  0  0  0  0  0
   58.8130   54.6495   49.2079 N   0  0  0  0  0  0  0  0  0  0  0  0
   57.5088   54.0730   49.6353 C   0  0  0  0  0  0  0  0  0  0  0  0
   56.8502   54.9256   48.5348 C   0  0  0  0  0  0  0  0  0  0  0  0
   58.2276   54.8486   47.8503 C   0  0  0  0  0  0  0  0  0  0  0  0
   61.3790   55.4693   48.9316 N   0  0  0  0  0  0  0  0  0  0  0  0
   62.4744   56.2076   48.3523 C   0  0  0  0  0  0  0  0  0  0  0  0
   62.2306   56.6222   46.8864 C   0  0  0  0  0  0  0  0  0  0  0  0
   62.5116   58.1366   46.9091 C   0  0  0  0  0  0  0  0  0  0  0  0
   61.3385   58.8435   47.6078 C   0  0  0  0  0  0  0  0  0  0  0  0
   61.5446   58.4733   49.0828 C   0  0  0  0  0  0  0  0  0  0  0  0
   62.7814   57.5554   49.0440 C   0  0  0  0  0  0  0  0  0  0  0  0
   63.6170   58.2452   47.9611 C   0  0  0  0  0  0  0  0  0  0  0  0
   59.5466   52.7243   48.5670 H   0  0  0  0  0  0  0  0  0  0  0  0
   60.0414   53.2372   50.1964 H   0  0  0  0  0  0  0  0  0  0  0  0
   57.3881   52.9925   49.4848 H   0  0  0  0  0  0  0  0  0  0  0  0
   57.2127   54.3230   50.6581 H   0  0  0  0  0  0  0  0  0  0  0  0
   56.0165   54.4659   47.9994 H   0  0  0  0  0  0  0  0  0  0  0  0
   56.5656   55.9338   48.8581 H   0  0  0  0  0  0  0  0  0  0  0  0
   58.5471   55.7651   47.3456 H   0  0  0  0  0  0  0  0  0  0  0  0
   58.3242   54.0071   47.1527 H   0  0  0  0  0  0  0  0  0  0  0  0
   60.5337   55.9530   49.2240 H   0  0  0  0  0  0  0  0  0  0  0  0
   63.3662   55.5679   48.3923 H   0  0  0  0  0  0  0  0  0  0  0  0
   61.2216   56.3925   46.5279 H   0  0  0  0  0  0  0  0  0  0  0  0
   62.9480   56.1125   46.2327 H   0  0  0  0  0  0  0  0  0  0  0  0
   62.7498   58.5511   45.9276 H   0  0  0  0  0  0  0  0  0  0  0  0
   60.3648   58.5125   47.2326 H   0  0  0  0  0  0  0  0  0  0  0  0
   61.4033   59.9298   47.4794 H   0  0  0  0  0  0  0  0  0  0  0  0
   60.6589   58.0082   49.5220 H   0  0  0  0  0  0  0  0  0  0  0  0
   61.7613   59.3775   49.6643 H   0  0  0  0  0  0  0  0  0  0  0  0
   63.2696   57.4472   50.0151 H   0  0  0  0  0  0  0  0  0  0  0  0
   63.8780   59.2797   48.2083 H   0  0  0  0  0  0  0  0  0  0  0  0
   64.5238   57.6923   47.6939 H   0  0  0  0  0  0  0  0  0  0  0  0
  1  2  2  0
  2  3  1  0
  3  4  1  0
  4  5  1  0
  5  6  1  0
  6  7  1  0
  2  8  1  0
  8  9  1  0
  9 10  1  0
 10 11  1  0
 11 12  1  0
 12 13  1  0
 13 14  1  0
 14 15  1  0
  7  4  1  0
 14  9  1  0
 15 11  1  0
  3 16  1  0
  3 17  1  0
  5 18  1  0
  5 19  1  0
  6 20  1  0
  6 21  1  0
  7 22  1  0
  7 23  1  0
  8 24  1  0
  9 25  1  0
 10 26  1  0
 10 27  1  0
 11 28  1  0
 12 29  1  0
 12 30  1  0
 13 31  1  0
 13 32  1  0
 14 33  1  0
 15 34  1  0
 15 35  1  0
M  END
$$$$
