
     RDKit          3D

 35 37  0  0  0  0  0  0  0  0999 V2000
   61.5930   55.4423   51.1121 O   0  0  0  0  0  0  0  0  0  0  0  0
   61.0613   55.0768   50.0668 C   0  0  0  0  0  0  0  0  0  0  0  0
   59.5399   54.9867   49.9106 C   0  0  0  0  0  0  0  0  0  0  0  0
   59.1783   54.0233   48.8463 N   0  0  0  0  0  0  0  0  0  0  0  0
   59.2336   52.6257   49.3673 C   0  0  0  0  0  0  0  0  0  0  0  0
   57.9132   52.3707   48.6170 C   0  0  0  0  0  0  0  0  0  0  0  0
   57.6970   53.8872   48.7749 C   0  0  0  0  0  0  0  0  0  0  0  0
   61.7657   54.7647   48.9221 N   0  0  0  0  0  0  0  0  0  0  0  0
   63.2287   54.7374   48.8681 C   0  0  0  0  0  0  0  0  0  0  0  0
   63.8095   54.2997   47.4922 C   0  0  0  0  0  0  0  0  0  0  0  0
   64.7727   53.4381   48.2661 C   0  0  0  0  0  0  0  0  0  0  0  0
   66.2056   53.8960   48.4319 C   0  0  0  0  0  0  0  0  0  0  0  0
   66.5913   52.3946   48.3923 C   0  0  0  0  0  0  0  0  0  0  0  0
   65.2269   52.1129   47.7111 C   0  0  0  0  0  0  0  0  0  0  0  0
   63.8725   53.4605   49.4817 C   0  0  0  0  0  0  0  0  0  0  0  0
   59.1893   55.9869   49.6308 H   0  0  0  0  0  0  0  0  0  0  0  0
   59.1060   54.7276   50.8841 H   0  0  0  0  0  0  0  0  0  0  0  0
   59.1489   52.5102   50.4553 H   0  0  0  0  0  0  0  0  0  0  0  0
   60.0882   52.0406   49.0151 H   0  0  0  0  0  0  0  0  0  0  0  0
   57.1891   51.7233   49.1166 H   0  0  0  0  0  0  0  0  0  0  0  0
   58.0431   52.0414   47.5794 H   0  0  0  0  0  0  0  0  0  0  0  0
   57.2341   54.3836   47.9172 H   0  0  0  0  0  0  0  0  0  0  0  0
   57.1448   54.1598   49.6835 H   0  0  0  0  0  0  0  0  0  0  0  0
   61.1895   54.3929   48.1695 H   0  0  0  0  0  0  0  0  0  0  0  0
   63.6744   55.6704   49.2366 H   0  0  0  0  0  0  0  0  0  0  0  0
   63.1120   53.7344   46.8626 H   0  0  0  0  0  0  0  0  0  0  0  0
   64.2449   55.1057   46.8946 H   0  0  0  0  0  0  0  0  0  0  0  0
   66.4582   54.4198   49.3576 H   0  0  0  0  0  0  0  0  0  0  0  0
   66.6007   54.4658   47.5830 H   0  0  0  0  0  0  0  0  0  0  0  0
   67.4761   52.1484   47.7997 H   0  0  0  0  0  0  0  0  0  0  0  0
   66.6875   51.9405   49.3853 H   0  0  0  0  0  0  0  0  0  0  0  0
   65.2870   52.0793   46.6173 H   0  0  0  0  0  0  0  0  0  0  0  0
   64.7031   51.2210   48.0648 H   0  0  0  0  0  0  0  0  0  0  0  0
   64.3569   53.6049   50.4516 H   0  0  0  0  0  0  0  0  0  0  0  0
   63.1923   52.6033   49.5545 H   0  0  0  0  0  0  0  0  0  0  0  0
  1  2  2  0
  2  3  1  0
  3  4  1  0
  4  5  1  0
  5  6  1  0
  6  7  1  0
  2  8  1  0
  8  9  1  0
  9 10  1  0
 10 11  1  0
 11 12  1  0
 12 13  1  0
 13 14  1  0
 11 15  1  0
  7  4  1  0
 15  9  1  0
 14 11  1  0
  3 16  1  0
  3 17  1  0
  5 18  1  0
  5 19  1  0
  6 20  1  0
  6 21  1  0
  7 22  1  0
  7 23  1  0
  8 24  1  0
  9 25  1  0
 10 26  1  0
 10 27  1  0
 12 28  1  0
 12 29  1  0
 13 30  1  0
 13 31  1  0
 14 32  1  0
 14 33  1  0
 15 34  1  0
 15 35  1  0
M  END
$$$$
