
     RDKit          3D

 43 45  0  0  0  0  0  0  0  0999 V2000
   60.5828   55.7697   45.6180 O   0  0  0  0  0  0  0  0  0  0  0  0
   59.9619   56.6215   46.2465 C   0  0  0  0  0  0  0  0  0  0  0  0
   59.1164   57.7016   45.5597 C   0  0  0  0  0  0  0  0  0  0  0  0
   57.9993   58.1427   46.4363 N   0  0  0  0  0  0  0  0  0  0  0  0
   56.9053   57.1373   46.4795 C   0  0  0  0  0  0  0  0  0  0  0  0
   56.0451   57.0648   45.2045 C   0  0  0  0  0  0  0  0  0  0  0  0
   55.5227   58.3507   44.8535 O   0  0  0  0  0  0  0  0  0  0  0  0
   56.5812   59.2985   44.6787 C   0  0  0  0  0  0  0  0  0  0  0  0
   57.4268   59.4227   45.9568 C   0  0  0  0  0  0  0  0  0  0  0  0
   59.9994   56.7428   47.6213 N   0  0  0  0  0  0  0  0  0  0  0  0
   60.7182   55.8001   48.4894 C   0  0  0  0  0  0  0  0  0  0  0  0
   60.6226   56.1335   49.9928 C   0  0  0  0  0  0  0  0  0  0  0  0
   62.0348   56.7891   49.9209 C   0  0  0  0  0  0  0  0  0  0  0  0
   62.0539   58.3195   49.7951 C   0  0  0  0  0  0  0  0  0  0  0  0
   61.7862   58.9426   51.1615 C   0  0  0  0  0  0  0  0  0  0  0  0
   62.7504   58.4928   52.1159 O   0  0  0  0  0  0  0  0  0  0  0  0
   62.6802   57.0784   52.3113 C   0  0  0  0  0  0  0  0  0  0  0  0
   63.0129   56.3472   51.0157 C   0  0  0  0  0  0  0  0  0  0  0  0
   62.2397   56.0415   48.5726 C   0  0  0  0  0  0  0  0  0  0  0  0
   58.7698   57.3210   44.5941 H   0  0  0  0  0  0  0  0  0  0  0  0
   59.8015   58.5378   45.3735 H   0  0  0  0  0  0  0  0  0  0  0  0
   57.2952   56.1424   46.7221 H   0  0  0  0  0  0  0  0  0  0  0  0
   56.2517   57.4168   47.3162 H   0  0  0  0  0  0  0  0  0  0  0  0
   55.1921   56.4002   45.3762 H   0  0  0  0  0  0  0  0  0  0  0  0
   56.6077   56.6605   44.3558 H   0  0  0  0  0  0  0  0  0  0  0  0
   56.1219   60.2648   44.4469 H   0  0  0  0  0  0  0  0  0  0  0  0
   57.1903   59.0077   43.8153 H   0  0  0  0  0  0  0  0  0  0  0  0
   56.7851   59.8098   46.7590 H   0  0  0  0  0  0  0  0  0  0  0  0
   58.2185   60.1677   45.8159 H   0  0  0  0  0  0  0  0  0  0  0  0
   59.3298   57.4165   47.9887 H   0  0  0  0  0  0  0  0  0  0  0  0
   60.4408   54.7657   48.2567 H   0  0  0  0  0  0  0  0  0  0  0  0
   59.7988   56.7919   50.2859 H   0  0  0  0  0  0  0  0  0  0  0  0
   60.5726   55.2364   50.6225 H   0  0  0  0  0  0  0  0  0  0  0  0
   63.0428   58.6381   49.4421 H   0  0  0  0  0  0  0  0  0  0  0  0
   61.3154   58.6802   49.0720 H   0  0  0  0  0  0  0  0  0  0  0  0
   61.8695   60.0320   51.0944 H   0  0  0  0  0  0  0  0  0  0  0  0
   60.7791   58.7095   51.5258 H   0  0  0  0  0  0  0  0  0  0  0  0
   61.6849   56.8114   52.6853 H   0  0  0  0  0  0  0  0  0  0  0  0
   63.4082   56.8138   53.0846 H   0  0  0  0  0  0  0  0  0  0  0  0
   62.9731   55.2638   51.1753 H   0  0  0  0  0  0  0  0  0  0  0  0
   64.0360   56.5991   50.7092 H   0  0  0  0  0  0  0  0  0  0  0  0
   62.8110   55.1083   48.6543 H   0  0  0  0  0  0  0  0  0  0  0  0
   62.6804   56.6315   47.7623 H   0  0  0  0  0  0  0  0  0  0  0  0
  1  2  2  0
  2  3  1  0
  3  4  1  0
  4  5  1  0
  5  6  1  0
  6  7  1  0
  7  8  1  0
  8  9  1  0
  2 10  1  0
 10 11  1  0
 11 12  1  0
 12 13  1  0
 13 14  1  0
 14 15  1  0
 15 16  1  0
 16 17  1  0
 17 18  1  0
 13 19  1  0
  9  4  1  0
 19 11  1  0
 18 13  1  0
  3 20  1  0
  3 21  1  0
  5 22  1  0
  5 23  1  0
  6 24  1  0
  6 25  1  0
  8 26  1  0
  8 27  1  0
  9 28  1  0
  9 29  1  0
 10 30  1  0
 11 31  1  0
 12 32  1  0
 12 33  1  0
 14 34  1  0
 14 35  1  0
 15 36  1  0
 15 37  1  0
 17 38  1  0
 17 39  1  0
 18 40  1  0
 18 41  1  0
 19 42  1  0
 19 43  1  0
M  END
$$$$
