
     RDKit          3D

 42 43  0  0  0  0  0  0  0  0999 V2000
    9.0101   -0.0365   -0.5331 O   0  0  0  0  0  0  0  0  0  0  0  0
    7.6655   -0.1517   -0.3412 C   0  0  0  0  0  0  0  0  0  0  0  0
    6.8080    0.9224   -0.5510 C   0  0  0  0  0  0  0  0  0  0  0  0
    5.4353    0.7578   -0.3408 C   0  0  0  0  0  0  0  0  0  0  0  0
    4.9174   -0.4796    0.0681 C   0  0  0  0  0  0  0  0  0  0  0  0
    3.4854   -0.6830    0.3293 C   0  0  0  0  0  0  0  0  0  0  0  0
    2.5061   -0.1559   -0.4237 C   0  0  0  0  0  0  0  0  0  0  0  0
    1.0747   -0.3616   -0.1625 C   0  0  0  0  0  0  0  0  0  0  0  0
    0.5586   -1.5935    0.2523 C   0  0  0  0  0  0  0  0  0  0  0  0
   -0.8150   -1.7519    0.4608 C   0  0  0  0  0  0  0  0  0  0  0  0
   -1.6964   -0.6901    0.2499 C   0  0  0  0  0  0  0  0  0  0  0  0
   -3.0099   -0.9815    0.4916 O   0  0  0  0  0  0  0  0  0  0  0  0
   -3.9583    0.0731    0.2995 C   0  0  0  0  0  0  0  0  0  0  0  0
   -5.3562   -0.4769    0.6359 C   0  0  0  0  0  0  0  0  0  0  0  0
   -6.5025    0.4386    0.5093 N   0  0  0  0  0  0  0  0  0  0  0  0
   -6.4248    1.5674    1.4315 C   0  0  0  0  0  0  0  0  0  0  0  0
   -6.7110    0.8919   -0.8625 C   0  0  0  0  0  0  0  0  0  0  0  0
   -1.1909    0.5359   -0.1791 C   0  0  0  0  0  0  0  0  0  0  0  0
    0.1851    0.6955   -0.3891 C   0  0  0  0  0  0  0  0  0  0  0  0
    5.8027   -1.5433    0.2886 C   0  0  0  0  0  0  0  0  0  0  0  0
    7.1741   -1.3811    0.0785 C   0  0  0  0  0  0  0  0  0  0  0  0
    9.2050    0.8693   -0.8235 H   0  0  0  0  0  0  0  0  0  0  0  0
    7.1833    1.8897   -0.8692 H   0  0  0  0  0  0  0  0  0  0  0  0
    4.7767    1.6101   -0.4883 H   0  0  0  0  0  0  0  0  0  0  0  0
    3.2533   -1.3097    1.1872 H   0  0  0  0  0  0  0  0  0  0  0  0
    2.7386    0.4690   -1.2824 H   0  0  0  0  0  0  0  0  0  0  0  0
    1.2128   -2.4476    0.4074 H   0  0  0  0  0  0  0  0  0  0  0  0
   -1.2005   -2.7152    0.7860 H   0  0  0  0  0  0  0  0  0  0  0  0
   -3.7166    0.9076    0.9671 H   0  0  0  0  0  0  0  0  0  0  0  0
   -3.9302    0.4030   -0.7450 H   0  0  0  0  0  0  0  0  0  0  0  0
   -5.5417   -1.3624    0.0126 H   0  0  0  0  0  0  0  0  0  0  0  0
   -5.3363   -0.8776    1.6586 H   0  0  0  0  0  0  0  0  0  0  0  0
   -7.3598    2.1387    1.4125 H   0  0  0  0  0  0  0  0  0  0  0  0
   -6.2930    1.2187    2.4617 H   0  0  0  0  0  0  0  0  0  0  0  0
   -5.6057    2.2532    1.1898 H   0  0  0  0  0  0  0  0  0  0  0  0
   -7.6534    1.4458   -0.9406 H   0  0  0  0  0  0  0  0  0  0  0  0
   -6.7929    0.0388   -1.5450 H   0  0  0  0  0  0  0  0  0  0  0  0
   -5.9060    1.5442   -1.2175 H   0  0  0  0  0  0  0  0  0  0  0  0
   -1.8346    1.3893   -0.3622 H   0  0  0  0  0  0  0  0  0  0  0  0
    0.5560    1.6618   -0.7242 H   0  0  0  0  0  0  0  0  0  0  0  0
    5.4322   -2.5114    0.6176 H   0  0  0  0  0  0  0  0  0  0  0  0
    7.8547   -2.2114    0.2434 H   0  0  0  0  0  0  0  0  0  0  0  0
  1  2  1  0
  2  3  1  0
  3  4  2  0
  4  5  1  0
  5  6  1  0
  6  7  2  0
  7  8  1  0
  8  9  1  0
  9 10  2  0
 10 11  1  0
 11 12  1  0
 12 13  1  0
 13 14  1  0
 14 15  1  0
 15 16  1  0
 15 17  1  0
 11 18  2  0
 18 19  1  0
  5 20  2  0
 20 21  1  0
 21  2  2  0
 19  8  2  0
  1 22  1  0
  3 23  1  0
  4 24  1  0
  6 25  1  0
  7 26  1  0
  9 27  1  0
 10 28  1  0
 13 29  1  0
 13 30  1  0
 14 31  1  0
 14 32  1  0
 16 33  1  0
 16 34  1  0
 16 35  1  0
 17 36  1  0
 17 37  1  0
 17 38  1  0
 18 39  1  0
 19 40  1  0
 20 41  1  0
 21 42  1  0
M  END
>  <gene>  (1) 
ESR1

>  <candidate_id>  (1) 
serm_stilbene_amine

>  <smiles>  (1) 
Oc1ccc(/C=C/c2ccc(OCCN(C)C)cc2)cc1

>  <chemical_sanity_pass>  (1) 
True

>  <clinical_grade>  (1) 
False

$$$$
