bcl2_m5_12
     RDKit          3D

 32 35  0  0  0  0  0  0  0  0999 V2000
    5.2637    1.4506    0.2531 O   0  0  0  0  0  0  0  0  0  0  0  0
    5.9935    0.7418   -0.4199 C   0  0  0  0  0  0  0  0  0  0  0  0
    5.7872    0.4958   -1.7820 N   0  0  0  0  0  0  0  0  0  0  0  0
    4.5617    1.1543   -2.6940 S   0  0  0  0  0  0  0  0  0  0  0  0
    4.7617    0.6215   -4.0282 O   0  0  0  0  0  0  0  0  0  0  0  0
    4.4967    2.5811   -2.4726 O   0  0  0  0  0  0  0  0  0  0  0  0
    3.1104    0.3833   -2.0291 C   0  0  0  0  0  0  0  0  0  0  0  0
    2.6967   -0.8538   -2.5296 C   0  0  0  0  0  0  0  0  0  0  0  0
    1.5448   -1.4517   -2.0158 C   0  0  0  0  0  0  0  0  0  0  0  0
    0.7909   -0.8154   -1.0136 C   0  0  0  0  0  0  0  0  0  0  0  0
   -0.3673   -1.4105   -0.4853 C   0  0  0  0  0  0  0  0  0  0  0  0
   -1.1163   -0.7557    0.4951 C   0  0  0  0  0  0  0  0  0  0  0  0
   -2.2352   -1.2903    1.0712 O   0  0  0  0  0  0  0  0  0  0  0  0
   -3.2404   -1.7338    0.1509 C   0  0  0  0  0  0  0  0  0  0  0  0
   -3.9894   -0.5714   -0.5412 C   0  0  0  0  0  0  0  0  0  0  0  0
   -4.6870    0.3652    0.3631 N   0  0  0  0  0  0  0  0  0  0  0  0
   -5.6842   -0.3139    1.2180 C   0  0  0  0  0  0  0  0  0  0  0  0
   -6.8367    0.6119    1.6698 C   0  0  0  0  0  0  0  0  0  0  0  0
   -7.6166    1.1866    0.5538 N   0  0  0  0  0  0  0  0  0  0  0  0
   -8.8284    0.4226    0.2840 C   0  0  0  0  0  0  0  0  0  0  0  0
   -6.7988    1.3113   -0.6705 C   0  0  0  0  0  0  0  0  0  0  0  0
   -5.2932    1.4934   -0.3797 C   0  0  0  0  0  0  0  0  0  0  0  0
   -0.6950    0.4766    0.9892 C   0  0  0  0  0  0  0  0  0  0  0  0
    0.4557    1.0797    0.4792 C   0  0  0  0  0  0  0  0  0  0  0  0
    1.2074    0.4482   -0.5241 C   0  0  0  0  0  0  0  0  0  0  0  0
    2.3675    1.0415   -1.0439 C   0  0  0  0  0  0  0  0  0  0  0  0
    7.1763    0.0671    0.1882 C   0  0  0  0  0  0  0  0  0  0  0  0
    7.7049    0.6099    1.3701 C   0  0  0  0  0  0  0  0  0  0  0  0
    8.8233    0.0326    1.9752 C   0  0  0  0  0  0  0  0  0  0  0  0
    9.4193   -1.0919    1.4062 C   0  0  0  0  0  0  0  0  0  0  0  0
    8.8952   -1.6457    0.2376 C   0  0  0  0  0  0  0  0  0  0  0  0
    7.7757   -1.0711   -0.3720 C   0  0  0  0  0  0  0  0  0  0  0  0
  1  2  2  0
  2  3  1  0
  3  4  1  0
  4  5  2  0
  4  6  2  0
  4  7  1  0
  7  8  2  0
  8  9  1  0
  9 10  2  0
 10 11  1  0
 11 12  2  0
 12 13  1  0
 13 14  1  0
 14 15  1  0
 15 16  1  0
 16 17  1  0
 17 18  1  0
 18 19  1  0
 19 20  1  0
 19 21  1  0
 21 22  1  0
 12 23  1  0
 23 24  2  0
 24 25  1  0
 25 26  2  0
  2 27  1  0
 27 28  2  0
 28 29  1  0
 29 30  2  0
 30 31  1  0
 31 32  2  0
 26  7  1  0
 32 27  1  0
 25 10  1  0
 22 16  1  0
M  END
>  <gene>  (1) 
BCL2

>  <formula>  (1) 
C24H27N3O4S

>  <clinical_grade>  (1) 
false

>  <fsp3>  (1) 
0.2917

$$$$
