
     RDKit          3D

103103  0  0  0  0  0  0  0  0999 V2000
    8.5071   -1.9315    4.5203 C   0  0  0  0  0  0  0  0  0  0  0  0
    8.8228   -2.2072    3.0757 C   0  0  0  0  0  0  0  0  0  0  0  0
    9.6476   -3.0465    2.7299 O   0  0  0  0  0  0  0  0  0  0  0  0
    8.1242   -1.4224    2.1870 N   0  0  0  0  0  0  0  0  0  0  0  0
    8.4519   -1.4508    0.7615 C   0  0  1  0  0  0  0  0  0  0  0  0
    7.2125   -1.0725   -0.0587 C   0  0  0  0  0  0  0  0  0  0  0  0
    7.3366   -1.3278   -1.5663 C   0  0  0  0  0  0  0  0  0  0  0  0
    8.0576   -0.2557   -2.3945 C   0  0  0  0  0  0  0  0  0  0  0  0
    7.1959    0.9554   -2.7789 C   0  0  0  0  0  0  0  0  0  0  0  0
    6.9323    1.8972   -1.6413 C   0  0  0  0  0  0  0  0  0  0  0  0
    5.7411    2.3182   -1.1856 C   0  0  0  0  0  0  0  0  0  0  0  0
    4.3796    1.9691   -1.7164 C   0  0  0  0  0  0  0  0  0  0  0  0
    3.6601    0.9930   -0.7830 C   0  0  0  0  0  0  0  0  0  0  0  0
    2.3001    0.5311   -1.3163 C   0  0  0  0  0  0  0  0  0  0  0  0
    1.2633    1.6576   -1.3917 C   0  0  0  0  0  0  0  0  0  0  0  0
   -0.1166    1.1470   -1.8264 C   0  0  1  0  0  0  0  0  0  0  0  0
   -0.8251    0.3370   -0.7153 C   0  0  0  0  0  0  0  0  0  0  0  0
   -0.4523    0.3150    0.4552 O   0  0  0  0  0  0  0  0  0  0  0  0
   -1.9578   -0.3297   -1.1498 N   0  0  0  0  0  0  0  0  0  0  0  0
   -2.9414   -0.7854   -0.1739 C   0  0  2  0  0  0  0  0  0  0  0  0
   -3.7769   -1.9721   -0.6892 C   0  0  0  0  0  0  0  0  0  0  0  0
   -4.7913   -1.6463   -1.7622 C   0  0  0  0  0  0  0  0  0  0  0  0
   -6.1483   -1.5028   -1.4360 C   0  0  0  0  0  0  0  0  0  0  0  0
   -7.0850   -1.1757   -2.4177 C   0  0  0  0  0  0  0  0  0  0  0  0
   -6.6777   -0.9939   -3.7368 C   0  0  0  0  0  0  0  0  0  0  0  0
   -5.3354   -1.1465   -4.0755 C   0  0  0  0  0  0  0  0  0  0  0  0
   -4.3979   -1.4767   -3.0955 C   0  0  0  0  0  0  0  0  0  0  0  0
   -3.8185    0.4177    0.2566 C   0  0  0  0  0  0  0  0  0  0  0  0
   -3.7564    1.5244   -0.2776 O   0  0  0  0  0  0  0  0  0  0  0  0
   -4.6851    0.1482    1.2990 N   0  0  0  0  0  0  0  0  0  0  0  0
   -5.5174    1.2104    1.8897 C   0  0  1  0  0  0  0  0  0  0  0  0
   -6.5979    1.6910    0.9228 C   0  0  0  0  0  0  0  0  0  0  0  0
   -7.4282    2.7792    1.5341 C   0  0  0  0  0  0  0  0  0  0  0  0
   -8.6390    2.7524    1.6806 O   0  0  0  0  0  0  0  0  0  0  0  0
   -6.7118    3.8565    1.8977 O   0  0  0  0  0  0  0  0  0  0  0  0
   -6.1974    0.6371    3.1507 C   0  0  0  0  0  0  0  0  0  0  0  0
   -6.5185    1.3323    4.1112 O   0  0  0  0  0  0  0  0  0  0  0  0
   -6.5170   -0.7040    3.0618 N   0  0  0  0  0  0  0  0  0  0  0  0
   -7.5184   -1.3203    3.9483 C   0  0  1  0  0  0  0  0  0  0  0  0
   -8.0028   -2.6345    3.3137 C   0  0  0  0  0  0  0  0  0  0  0  0
   -8.1996   -2.4439    1.9039 O   0  0  0  0  0  0  0  0  0  0  0  0
   -7.0315   -1.6159    5.3818 C   0  0  0  0  0  0  0  0  0  0  0  0
   -6.2696   -0.6549    5.9800 N   0  0  0  0  0  0  0  0  0  0  0  0
   -7.3892   -2.5990    6.0270 O   0  0  0  0  0  0  0  0  0  0  0  0
   -0.9824    2.2873   -2.1518 N   0  0  0  0  0  0  0  0  0  0  0  0
   -2.0016    2.1662   -3.0674 C   0  0  0  0  0  0  0  0  0  0  0  0
   -2.8843    3.3773   -3.1875 C   0  0  0  0  0  0  0  0  0  0  0  0
   -2.1973    1.1373   -3.7089 O   0  0  0  0  0  0  0  0  0  0  0  0
    9.5934   -0.4466    0.5846 C   0  0  0  0  0  0  0  0  0  0  0  0
   10.8763   -0.9746   -0.0022 C   0  0  0  0  0  0  0  0  0  0  0  0
    9.4917    0.7263    0.9547 O   0  0  0  0  0  0  0  0  0  0  0  0
    8.4367   -2.8802    5.0596 H   0  0  0  0  0  0  0  0  0  0  0  0
    9.3043   -1.3204    4.9510 H   0  0  0  0  0  0  0  0  0  0  0  0
    7.5537   -1.4065    4.6269 H   0  0  0  0  0  0  0  0  0  0  0  0
    7.7756   -0.5366    2.5386 H   0  0  0  0  0  0  0  0  0  0  0  0
    8.7973   -2.4553    0.4941 H   0  0  0  0  0  0  0  0  0  0  0  0
    6.3785   -1.6916    0.3007 H   0  0  0  0  0  0  0  0  0  0  0  0
    6.9183   -0.0407    0.1480 H   0  0  0  0  0  0  0  0  0  0  0  0
    6.3285   -1.4625   -1.9786 H   0  0  0  0  0  0  0  0  0  0  0  0
    7.8506   -2.2860   -1.7154 H   0  0  0  0  0  0  0  0  0  0  0  0
    8.3683   -0.7321   -3.3340 H   0  0  0  0  0  0  0  0  0  0  0  0
    8.9790    0.0755   -1.9099 H   0  0  0  0  0  0  0  0  0  0  0  0
    7.7319    1.5223   -3.5506 H   0  0  0  0  0  0  0  0  0  0  0  0
    6.2728    0.6020   -3.2473 H   0  0  0  0  0  0  0  0  0  0  0  0
    7.8226    2.2714   -1.1328 H   0  0  0  0  0  0  0  0  0  0  0  0
    5.7430    2.9993   -0.3343 H   0  0  0  0  0  0  0  0  0  0  0  0
    4.4343    1.5494   -2.7253 H   0  0  0  0  0  0  0  0  0  0  0  0
    3.8096    2.9010   -1.8050 H   0  0  0  0  0  0  0  0  0  0  0  0
    3.5302    1.4466    0.2078 H   0  0  0  0  0  0  0  0  0  0  0  0
    4.2863    0.1032   -0.6400 H   0  0  0  0  0  0  0  0  0  0  0  0
    1.9336   -0.2645   -0.6575 H   0  0  0  0  0  0  0  0  0  0  0  0
    2.4288    0.0814   -2.3084 H   0  0  0  0  0  0  0  0  0  0  0  0
    1.6020    2.4095   -2.1148 H   0  0  0  0  0  0  0  0  0  0  0  0
    1.1945    2.1666   -0.4220 H   0  0  0  0  0  0  0  0  0  0  0  0
   -0.0148    0.5085   -2.7123 H   0  0  0  0  0  0  0  0  0  0  0  0
   -2.3325    0.0052   -2.0378 H   0  0  0  0  0  0  0  0  0  0  0  0
   -2.3948   -1.1196    0.7171 H   0  0  0  0  0  0  0  0  0  0  0  0
   -3.1075   -2.7547   -1.0708 H   0  0  0  0  0  0  0  0  0  0  0  0
   -4.3044   -2.4302    0.1583 H   0  0  0  0  0  0  0  0  0  0  0  0
   -6.4921   -1.6432   -0.4144 H   0  0  0  0  0  0  0  0  0  0  0  0
   -8.1328   -1.0605   -2.1529 H   0  0  0  0  0  0  0  0  0  0  0  0
   -7.4046   -0.7344   -4.5017 H   0  0  0  0  0  0  0  0  0  0  0  0
   -5.0128   -1.0026   -5.1037 H   0  0  0  0  0  0  0  0  0  0  0  0
   -3.3566   -1.5929   -3.3889 H   0  0  0  0  0  0  0  0  0  0  0  0
   -4.4168   -0.6075    1.9218 H   0  0  0  0  0  0  0  0  0  0  0  0
   -4.8459    2.0192    2.1994 H   0  0  0  0  0  0  0  0  0  0  0  0
   -7.2693    0.8663    0.6534 H   0  0  0  0  0  0  0  0  0  0  0  0
   -6.1829    2.0742   -0.0147 H   0  0  0  0  0  0  0  0  0  0  0  0
   -7.3736    4.4695    2.2831 H   0  0  0  0  0  0  0  0  0  0  0  0
   -6.6018   -1.0474    2.1076 H   0  0  0  0  0  0  0  0  0  0  0  0
   -8.3594   -0.6192    4.0151 H   0  0  0  0  0  0  0  0  0  0  0  0
   -8.9454   -2.9621    3.7646 H   0  0  0  0  0  0  0  0  0  0  0  0
   -7.2604   -3.4313    3.4330 H   0  0  0  0  0  0  0  0  0  0  0  0
   -8.6469   -3.2480    1.5800 H   0  0  0  0  0  0  0  0  0  0  0  0
   -6.2818    0.2922    5.6008 H   0  0  0  0  0  0  0  0  0  0  0  0
   -6.0966   -0.7539    6.9708 H   0  0  0  0  0  0  0  0  0  0  0  0
   -1.1288    2.9644   -1.4107 H   0  0  0  0  0  0  0  0  0  0  0  0
   -3.0601    3.5878   -4.2458 H   0  0  0  0  0  0  0  0  0  0  0  0
   -2.4186    4.2576   -2.7357 H   0  0  0  0  0  0  0  0  0  0  0  0
   -3.8359    3.1793   -2.6878 H   0  0  0  0  0  0  0  0  0  0  0  0
   11.5427   -0.1405   -0.2383 H   0  0  0  0  0  0  0  0  0  0  0  0
   10.6656   -1.5220   -0.9242 H   0  0  0  0  0  0  0  0  0  0  0  0
   11.3640   -1.6325    0.7209 H   0  0  0  0  0  0  0  0  0  0  0  0
  1  2  1  0
  2  3  2  0
  2  4  1  0
  4  5  1  0
  5  6  1  0
  6  7  1  0
  7  8  1  0
  8  9  1  0
  9 10  1  0
 10 11  2  3
 11 12  1  0
 12 13  1  0
 13 14  1  0
 14 15  1  0
 15 16  1  0
 16 17  1  0
 17 18  2  0
 17 19  1  0
 19 20  1  0
 20 21  1  0
 21 22  1  0
 22 23  2  0
 23 24  1  0
 24 25  2  0
 25 26  1  0
 26 27  2  0
 20 28  1  0
 28 29  2  0
 28 30  1  0
 30 31  1  0
 31 32  1  0
 32 33  1  0
 33 34  2  0
 33 35  1  0
 31 36  1  0
 36 37  2  0
 36 38  1  0
 38 39  1  0
 39 40  1  0
 40 41  1  0
 39 42  1  0
 42 43  1  0
 42 44  2  0
 16 45  1  0
 45 46  1  0
 46 47  1  0
 46 48  2  0
  5 49  1  0
 49 50  1  0
 49 51  2  0
 27 22  1  0
  1 52  1  0
  1 53  1  0
  1 54  1  0
  4 55  1  0
  5 56  1  6
  6 57  1  0
  6 58  1  0
  7 59  1  0
  7 60  1  0
  8 61  1  0
  8 62  1  0
  9 63  1  0
  9 64  1  0
 10 65  1  0
 11 66  1  0
 12 67  1  0
 12 68  1  0
 13 69  1  0
 13 70  1  0
 14 71  1  0
 14 72  1  0
 15 73  1  0
 15 74  1  0
 16 75  1  6
 19 76  1  0
 20 77  1  1
 21 78  1  0
 21 79  1  0
 23 80  1  0
 24 81  1  0
 25 82  1  0
 26 83  1  0
 27 84  1  0
 30 85  1  0
 31 86  1  1
 32 87  1  0
 32 88  1  0
 35 89  1  0
 38 90  1  0
 39 91  1  1
 40 92  1  0
 40 93  1  0
 41 94  1  0
 43 95  1  0
 43 96  1  0
 45 97  1  0
 47 98  1  0
 47 99  1  0
 47100  1  0
 50101  1  0
 50102  1  0
 50103  1  0
M  END
$$$$
