
     RDKit          3D

 70 71  0  0  0  0  0  0  0  0999 V2000
    0.8048    4.3636    0.4730 O   0  0  0  0  0  0  0  0  0  0  0  0
    0.0299    3.6177   -0.1188 C   0  0  0  0  0  0  0  0  0  0  0  0
    0.4485    2.6316   -0.9905 N   0  0  0  0  0  0  0  0  0  0  0  0
    1.7516    2.0052   -0.8559 C   0  0  0  0  0  0  0  0  0  0  0  0
    1.5372    0.4836   -0.8141 C   0  0  0  0  0  0  0  0  0  0  0  0
    0.5013   -0.0519   -1.2195 O   0  0  0  0  0  0  0  0  0  0  0  0
    2.5963   -0.2318   -0.3209 N   0  0  0  0  0  0  0  0  0  0  0  0
    2.5883   -1.6786   -0.1640 C   0  0  1  0  0  0  0  0  0  0  0  0
    4.0015   -2.2371    0.0595 C   0  0  0  0  0  0  0  0  0  0  0  0
    4.9190   -2.1743   -1.1689 C   0  0  0  0  0  0  0  0  0  0  0  0
    5.4483   -0.7930   -1.5621 C   0  0  0  0  0  0  0  0  0  0  0  0
    6.3408   -0.2445   -0.5569 N   0  0  0  0  0  0  0  0  0  0  0  0
    5.9581    0.6175    0.4094 C   0  0  0  0  0  0  0  0  0  0  0  0
    4.7870    1.1291    0.5306 N   0  0  0  0  0  0  0  0  0  0  0  0
    6.9699    0.8903    1.2544 N   0  0  0  0  0  0  0  0  0  0  0  0
    1.6966   -2.0168    1.0548 C   0  0  0  0  0  0  0  0  0  0  0  0
    2.1032   -2.0120    2.2133 O   0  0  0  0  0  0  0  0  0  0  0  0
    0.3714   -2.2182    0.7324 N   0  0  0  0  0  0  0  0  0  0  0  0
   -0.6799   -2.3652    1.7408 C   0  0  2  0  0  0  0  0  0  0  0  0
   -0.9105   -3.8206    2.1364 C   0  0  0  0  0  0  0  0  0  0  0  0
   -1.6727   -4.6203    1.1177 C   0  0  0  0  0  0  0  0  0  0  0  0
   -2.4136   -5.5595    1.3611 O   0  0  0  0  0  0  0  0  0  0  0  0
   -1.4116   -4.2962   -0.1635 O   0  0  0  0  0  0  0  0  0  0  0  0
   -2.0001   -1.6749    1.3176 C   0  0  0  0  0  0  0  0  0  0  0  0
   -3.0347   -1.8073    1.9644 O   0  0  0  0  0  0  0  0  0  0  0  0
   -1.8990   -0.8945    0.1843 N   0  0  0  0  0  0  0  0  0  0  0  0
   -2.8145    0.1971   -0.1625 C   0  0  1  0  0  0  0  0  0  0  0  0
   -4.2836    0.0506    0.2476 C   0  0  0  0  0  0  0  0  0  0  0  0
   -5.1689    1.0560   -0.4589 C   0  0  0  0  0  0  0  0  0  0  0  0
   -5.5457    0.8571   -1.7941 C   0  0  0  0  0  0  0  0  0  0  0  0
   -6.3224    1.8080   -2.4571 C   0  0  0  0  0  0  0  0  0  0  0  0
   -6.7294    2.9636   -1.7928 C   0  0  0  0  0  0  0  0  0  0  0  0
   -6.3646    3.1679   -0.4635 C   0  0  0  0  0  0  0  0  0  0  0  0
   -5.5887    2.2186    0.2022 C   0  0  0  0  0  0  0  0  0  0  0  0
   -2.1848    1.4786    0.4193 C   0  0  0  0  0  0  0  0  0  0  0  0
   -1.6356    1.5214    1.5175 O   0  0  0  0  0  0  0  0  0  0  0  0
   -2.1818    2.5581   -0.4500 N   0  0  0  0  0  0  0  0  0  0  0  0
   -1.4996    3.7878   -0.0586 C   0  0  0  0  0  0  0  0  0  0  0  0
   -0.2851    2.0296   -1.3505 H   0  0  0  0  0  0  0  0  0  0  0  0
    2.3448    2.2554   -1.7393 H   0  0  0  0  0  0  0  0  0  0  0  0
    2.2521    2.3451    0.0544 H   0  0  0  0  0  0  0  0  0  0  0  0
    3.3624    0.2899    0.1288 H   0  0  0  0  0  0  0  0  0  0  0  0
    2.1471   -2.1261   -1.0627 H   0  0  0  0  0  0  0  0  0  0  0  0
    4.4817   -1.7530    0.9177 H   0  0  0  0  0  0  0  0  0  0  0  0
    3.9042   -3.2959    0.3364 H   0  0  0  0  0  0  0  0  0  0  0  0
    4.3915   -2.6057   -2.0286 H   0  0  0  0  0  0  0  0  0  0  0  0
    5.7785   -2.8303   -0.9771 H   0  0  0  0  0  0  0  0  0  0  0  0
    6.0355   -0.9126   -2.4807 H   0  0  0  0  0  0  0  0  0  0  0  0
    4.6461   -0.0971   -1.8217 H   0  0  0  0  0  0  0  0  0  0  0  0
    7.0872   -0.8720   -0.2822 H   0  0  0  0  0  0  0  0  0  0  0  0
    4.7795    1.7340    1.3592 H   0  0  0  0  0  0  0  0  0  0  0  0
    7.8669    0.9667    0.7891 H   0  0  0  0  0  0  0  0  0  0  0  0
    6.8200    1.6825    1.8667 H   0  0  0  0  0  0  0  0  0  0  0  0
    0.1149   -2.3723   -0.2381 H   0  0  0  0  0  0  0  0  0  0  0  0
   -0.3420   -1.8211    2.6324 H   0  0  0  0  0  0  0  0  0  0  0  0
   -1.5024   -3.8450    3.0597 H   0  0  0  0  0  0  0  0  0  0  0  0
    0.0388   -4.3322    2.3290 H   0  0  0  0  0  0  0  0  0  0  0  0
   -1.9725   -4.9275   -0.6653 H   0  0  0  0  0  0  0  0  0  0  0  0
   -0.9379   -0.7084   -0.1056 H   0  0  0  0  0  0  0  0  0  0  0  0
   -2.7391    0.2590   -1.2561 H   0  0  0  0  0  0  0  0  0  0  0  0
   -4.6482   -0.9565    0.0079 H   0  0  0  0  0  0  0  0  0  0  0  0
   -4.4015    0.1744    1.3312 H   0  0  0  0  0  0  0  0  0  0  0  0
   -5.2422   -0.0436   -2.3240 H   0  0  0  0  0  0  0  0  0  0  0  0
   -6.6178    1.6438   -3.4904 H   0  0  0  0  0  0  0  0  0  0  0  0
   -7.3409    3.7003   -2.3076 H   0  0  0  0  0  0  0  0  0  0  0  0
   -6.6911    4.0641    0.0586 H   0  0  0  0  0  0  0  0  0  0  0  0
   -5.3142    2.3919    1.2418 H   0  0  0  0  0  0  0  0  0  0  0  0
   -2.9416    2.6250   -1.1193 H   0  0  0  0  0  0  0  0  0  0  0  0
   -1.7925    4.5751   -0.7585 H   0  0  0  0  0  0  0  0  0  0  0  0
   -1.7942    4.0560    0.9604 H   0  0  0  0  0  0  0  0  0  0  0  0
  1  2  2  0
  2  3  1  0
  3  4  1  0
  4  5  1  0
  5  6  2  0
  5  7  1  0
  7  8  1  0
  8  9  1  0
  9 10  1  0
 10 11  1  0
 11 12  1  0
 12 13  1  0
 13 14  2  3
 13 15  1  0
  8 16  1  0
 16 17  2  0
 16 18  1  0
 18 19  1  0
 19 20  1  0
 20 21  1  0
 21 22  2  0
 21 23  1  0
 19 24  1  0
 24 25  2  0
 24 26  1  0
 26 27  1  0
 27 28  1  0
 28 29  1  0
 29 30  2  0
 30 31  1  0
 31 32  2  0
 32 33  1  0
 33 34  2  0
 27 35  1  0
 35 36  2  0
 35 37  1  0
 37 38  1  0
 38  2  1  0
 34 29  1  0
  3 39  1  0
  4 40  1  0
  4 41  1  0
  7 42  1  0
  8 43  1  6
  9 44  1  0
  9 45  1  0
 10 46  1  0
 10 47  1  0
 11 48  1  0
 11 49  1  0
 12 50  1  0
 14 51  1  0
 15 52  1  0
 15 53  1  0
 18 54  1  0
 19 55  1  1
 20 56  1  0
 20 57  1  0
 23 58  1  0
 26 59  1  0
 27 60  1  6
 28 61  1  0
 28 62  1  0
 30 63  1  0
 31 64  1  0
 32 65  1  0
 33 66  1  0
 34 67  1  0
 37 68  1  0
 38 69  1  0
 38 70  1  0
M  END
$$$$
