
     RDKit          2D

 51 56  0  0  0  0  0  0  0  0999 V2000
  -10.7241    4.5483    0.0000 O   0  0  0  0  0  0  0  0  0  0  0  0
  -10.5673    6.0401    0.0000 C   0  0  0  0  0  0  0  0  0  0  0  0
   -9.1970    6.6502    0.0000 N   0  0  0  0  0  0  0  0  0  0  0  0
   -7.9835    5.7685    0.0000 C   0  0  0  0  0  0  0  0  0  0  0  0
   -8.1403    4.2767    0.0000 C   0  0  0  0  0  0  0  0  0  0  0  0
   -6.9268    3.3950    0.0000 C   0  0  0  0  0  0  0  0  0  0  0  0
   -5.5564    4.0051    0.0000 C   0  0  0  0  0  0  0  0  0  0  0  0
   -4.3429    3.1235    0.0000 C   0  0  0  0  0  0  0  0  0  0  0  0
   -2.9726    3.7336    0.0000 O   0  0  0  0  0  0  0  0  0  0  0  0
   -4.4997    1.6317    0.0000 N   0  0  0  0  0  0  0  0  0  0  0  0
   -3.2862    0.7500    0.0000 C   0  0  0  0  0  0  0  0  0  0  0  0
   -3.2862   -0.7500    0.0000 C   0  0  0  0  0  0  0  0  0  0  0  0
   -1.8596   -1.2135    0.0000 C   0  0  0  0  0  0  0  0  0  0  0  0
   -2.7413    0.0000    0.0000 C   0  0  0  0  0  0  0  0  0  0  0  0
   -1.8596    1.2135    0.0000 C   0  0  0  0  0  0  0  0  0  0  0  0
   -0.4330    0.7500    0.0000 C   0  0  0  0  0  0  0  0  0  0  0  0
    0.8660    0.0000    0.0000 C   0  0  0  0  0  0  0  0  0  0  0  0
   -0.4330   -0.7500    0.0000 C   0  0  0  0  0  0  0  0  0  0  0  0
   -1.8596    0.2865    0.0000 C   0  0  0  0  0  0  0  0  0  0  0  0
   -5.3996    5.4969    0.0000 C   0  0  0  0  0  0  0  0  0  0  0  0
   -6.6132    6.3786    0.0000 C   0  0  0  0  0  0  0  0  0  0  0  0
   -6.4564    7.8704    0.0000 C   0  0  0  0  0  0  0  0  0  0  0  0
   -6.2996    9.3622    0.0000 F   0  0  0  0  0  0  0  0  0  0  0  0
   -4.9646    7.7136    0.0000 F   0  0  0  0  0  0  0  0  0  0  0  0
   -7.9482    8.0272    0.0000 F   0  0  0  0  0  0  0  0  0  0  0  0
  -11.7809    6.9217    0.0000 C   0  0  0  0  0  0  0  0  0  0  0  0
  -13.1512    6.3116    0.0000 C   0  0  0  0  0  0  0  0  0  0  0  0
  -14.3647    7.1933    0.0000 C   0  0  0  0  0  0  0  0  0  0  0  0
  -14.2079    8.6851    0.0000 N   0  0  0  0  0  0  0  0  0  0  0  0
  -12.8376    9.2952    0.0000 C   0  0  0  0  0  0  0  0  0  0  0  0
  -11.6241    8.4135    0.0000 C   0  0  0  0  0  0  0  0  0  0  0  0
   -9.0402    8.1420    0.0000 H   0  0  0  0  0  0  0  0  0  0  0  0
   -9.5106    3.6666    0.0000 H   0  0  0  0  0  0  0  0  0  0  0  0
   -7.0836    1.9033    0.0000 H   0  0  0  0  0  0  0  0  0  0  0  0
   -5.8700    1.0216    0.0000 H   0  0  0  0  0  0  0  0  0  0  0  0
   -4.7780   -0.5932    0.0000 H   0  0  0  0  0  0  0  0  0  0  0  0
   -3.5980   -2.2172    0.0000 H   0  0  0  0  0  0  0  0  0  0  0  0
   -3.4451   -0.3742    0.0000 H   0  0  0  0  0  0  0  0  0  0  0  0
   -4.1968    0.3627    0.0000 H   0  0  0  0  0  0  0  0  0  0  0  0
   -2.3231    2.6401    0.0000 H   0  0  0  0  0  0  0  0  0  0  0  0
    0.1771    2.1203    0.0000 H   0  0  0  0  0  0  0  0  0  0  0  0
    1.8302    1.1491    0.0000 H   0  0  0  0  0  0  0  0  0  0  0  0
    1.8302   -1.1491    0.0000 H   0  0  0  0  0  0  0  0  0  0  0  0
    0.1771   -2.1203    0.0000 H   0  0  0  0  0  0  0  0  0  0  0  0
   -1.2020    1.6346    0.0000 H   0  0  0  0  0  0  0  0  0  0  0  0
   -0.4501   -0.2266    0.0000 H   0  0  0  0  0  0  0  0  0  0  0  0
   -4.0293    6.1070    0.0000 H   0  0  0  0  0  0  0  0  0  0  0  0
  -13.3080    4.8199    0.0000 H   0  0  0  0  0  0  0  0  0  0  0  0
  -15.7350    6.5832    0.0000 H   0  0  0  0  0  0  0  0  0  0  0  0
  -12.6808   10.7870    0.0000 H   0  0  0  0  0  0  0  0  0  0  0  0
  -10.2537    9.0236    0.0000 H   0  0  0  0  0  0  0  0  0  0  0  0
  1  2  2  0
  2  3  1  0
  3  4  1  0
  4  5  1  0
  5  6  2  0
  6  7  1  0
  7  8  1  0
  8  9  2  0
  8 10  1  0
 10 11  1  0
 11 12  1  0
 12 13  1  0
 13 14  1  0
 14 15  1  0
 15 16  1  0
 16 17  1  0
 17 18  1  0
 13 19  1  0
  7 20  2  0
 20 21  1  0
 21 22  1  0
 22 23  1  0
 22 24  1  0
 22 25  1  0
  2 26  1  0
 26 27  2  0
 27 28  1  0
 28 29  2  0
 29 30  1  0
 30 31  2  0
 21  4  2  0
 31 26  1  0
 15 11  1  0
 18 16  1  0
 19 11  1  0
 18 13  1  0
  3 32  1  0
  5 33  1  0
  6 34  1  0
 10 35  1  0
 12 36  1  0
 12 37  1  0
 14 38  1  0
 14 39  1  0
 15 40  1  0
 16 41  1  0
 17 42  1  0
 17 43  1  0
 18 44  1  0
 19 45  1  0
 19 46  1  0
 20 47  1  0
 27 48  1  0
 28 49  1  0
 30 50  1  0
 31 51  1  0
M  END
$$$$
