
     RDKit          3D

111112  0  0  0  0  0  0  0  0999 V2000
   -2.3775    1.3110    1.5948 C   0  0  0  0  0  0  0  0  0  0  0  0
   -3.7359    0.9218    0.9844 C   0  0  0  0  0  0  0  0  0  0  0  0
   -4.7904    0.9267    2.0965 C   0  0  0  0  0  0  0  0  0  0  0  0
   -3.5742   -0.4156    0.3680 N   0  0  0  0  0  0  0  0  0  0  0  0
   -4.6150   -1.0514   -0.2886 C   0  0  0  0  0  0  0  0  0  0  0  0
   -5.6887   -0.5079   -0.5272 O   0  0  0  0  0  0  0  0  0  0  0  0
   -4.3532   -2.5329   -0.6295 C   0  0  2  0  0  0  0  0  0  0  0  0
   -5.0754   -3.4400    0.3908 C   0  0  0  0  0  0  0  0  0  0  0  0
   -4.5665   -3.3569    1.8141 C   0  0  0  0  0  0  0  0  0  0  0  0
   -5.2626   -2.6093    2.7727 C   0  0  0  0  0  0  0  0  0  0  0  0
   -4.7947   -2.5267    4.0853 C   0  0  0  0  0  0  0  0  0  0  0  0
   -3.6258   -3.1887    4.4534 C   0  0  0  0  0  0  0  0  0  0  0  0
   -2.9316   -3.9458    3.5123 C   0  0  0  0  0  0  0  0  0  0  0  0
   -3.4032   -4.0348    2.2019 C   0  0  0  0  0  0  0  0  0  0  0  0
   -2.9150   -2.8018   -0.7797 N   0  0  0  0  0  0  0  0  0  0  0  0
   -2.4902   -3.9883   -1.3331 C   0  0  0  0  0  0  0  0  0  0  0  0
   -3.2536   -4.9172   -1.5914 O   0  0  0  0  0  0  0  0  0  0  0  0
   -0.9895   -4.1087   -1.6222 C   0  0  0  0  0  0  0  0  0  0  0  0
   -0.0913   -3.0442   -1.1898 N   0  0  0  0  0  0  0  0  0  0  0  0
    0.0117   -1.8948   -1.9486 C   0  0  0  0  0  0  0  0  0  0  0  0
   -0.9048   -1.5095   -2.6713 O   0  0  0  0  0  0  0  0  0  0  0  0
    1.4032   -1.2250   -1.9297 C   0  0  2  0  0  0  0  0  0  0  0  0
    2.2717   -1.8408   -3.0348 C   0  0  0  0  0  0  0  0  0  0  0  0
    3.0593   -3.0640   -2.6575 C   0  0  0  0  0  0  0  0  0  0  0  0
    4.1613   -3.3632   -3.0898 O   0  0  0  0  0  0  0  0  0  0  0  0
    2.4205   -3.9272   -1.8431 O   0  0  0  0  0  0  0  0  0  0  0  0
    1.9642   -1.2402   -0.5769 N   0  0  0  0  0  0  0  0  0  0  0  0
    3.1987   -0.6787   -0.3024 C   0  0  0  0  0  0  0  0  0  0  0  0
    3.9782   -0.3111   -1.1765 O   0  0  0  0  0  0  0  0  0  0  0  0
    3.4416   -0.4216    1.2014 C   0  0  1  0  0  0  0  0  0  0  0  0
    4.9240   -0.5492    1.5662 C   0  0  0  0  0  0  0  0  0  0  0  0
    5.4391   -1.9837    1.3918 C   0  0  0  0  0  0  0  0  0  0  0  0
    6.9167   -2.1351    1.7635 C   0  0  0  0  0  0  0  0  0  0  0  0
    7.1442   -1.9169    3.1802 N   0  0  0  0  0  0  0  0  0  0  0  0
    6.7203   -2.7371    4.1653 C   0  0  0  0  0  0  0  0  0  0  0  0
    6.3107   -3.9464    4.0775 N   0  0  0  0  0  0  0  0  0  0  0  0
    6.7683   -2.1386    5.3704 N   0  0  0  0  0  0  0  0  0  0  0  0
    2.9765    0.9468    1.4338 N   0  0  0  0  0  0  0  0  0  0  0  0
    1.6274    1.2236    1.4172 C   0  0  0  0  0  0  0  0  0  0  0  0
    0.7752    0.3373    1.4059 O   0  0  0  0  0  0  0  0  0  0  0  0
   -4.0521    2.0260   -0.0680 C   0  0  0  0  0  0  0  0  0  0  0  0
   -4.6494    3.0644    0.2132 O   0  0  0  0  0  0  0  0  0  0  0  0
   -3.4179    1.8439   -1.2847 N   0  0  0  0  0  0  0  0  0  0  0  0
   -3.5379    2.8054   -2.3584 C   0  0  0  0  0  0  0  0  0  0  0  0
   -2.5786    3.9759   -2.1532 C   0  0  0  0  0  0  0  0  0  0  0  0
   -2.6982    5.0069   -3.2779 C   0  0  0  0  0  0  0  0  0  0  0  0
   -1.7046    6.1665   -3.1247 C   0  0  0  0  0  0  0  0  0  0  0  0
   -0.3915    5.9941   -3.8995 C   0  0  0  0  0  0  0  0  0  0  0  0
    0.4008    4.7794   -3.5153 C   0  0  0  0  0  0  0  0  0  0  0  0
    1.5088    4.8047   -2.7592 C   0  0  0  0  0  0  0  0  0  0  0  0
    2.2945    3.5754   -2.4078 C   0  0  0  0  0  0  0  0  0  0  0  0
    2.4391    3.3475   -0.8993 C   0  0  0  0  0  0  0  0  0  0  0  0
    1.1069    3.0904   -0.1816 C   0  0  0  0  0  0  0  0  0  0  0  0
    1.2874    2.6943    1.2886 C   0  0  0  0  0  0  0  0  0  0  0  0
   -2.4117    2.3074    2.0507 H   0  0  0  0  0  0  0  0  0  0  0  0
   -1.5971    1.3312    0.8264 H   0  0  0  0  0  0  0  0  0  0  0  0
   -2.0660    0.5949    2.3636 H   0  0  0  0  0  0  0  0  0  0  0  0
   -4.5445    0.1960    2.8725 H   0  0  0  0  0  0  0  0  0  0  0  0
   -4.8583    1.9073    2.5816 H   0  0  0  0  0  0  0  0  0  0  0  0
   -5.7890    0.6901    1.7144 H   0  0  0  0  0  0  0  0  0  0  0  0
   -2.9713   -1.0589    0.8753 H   0  0  0  0  0  0  0  0  0  0  0  0
   -4.7961   -2.6988   -1.6206 H   0  0  0  0  0  0  0  0  0  0  0  0
   -5.0286   -4.4892    0.0764 H   0  0  0  0  0  0  0  0  0  0  0  0
   -6.1464   -3.1928    0.3867 H   0  0  0  0  0  0  0  0  0  0  0  0
   -6.1766   -2.0827    2.5041 H   0  0  0  0  0  0  0  0  0  0  0  0
   -5.3451   -1.9442    4.8203 H   0  0  0  0  0  0  0  0  0  0  0  0
   -3.2624   -3.1239    5.4761 H   0  0  0  0  0  0  0  0  0  0  0  0
   -2.0289   -4.4771    3.8029 H   0  0  0  0  0  0  0  0  0  0  0  0
   -2.8631   -4.6501    1.4863 H   0  0  0  0  0  0  0  0  0  0  0  0
   -2.3319   -2.0103   -1.0365 H   0  0  0  0  0  0  0  0  0  0  0  0
   -0.8654   -4.2442   -2.7037 H   0  0  0  0  0  0  0  0  0  0  0  0
   -0.6441   -5.0188   -1.1160 H   0  0  0  0  0  0  0  0  0  0  0  0
    0.8171   -3.3805   -0.8711 H   0  0  0  0  0  0  0  0  0  0  0  0
    1.2287   -0.1667   -2.1684 H   0  0  0  0  0  0  0  0  0  0  0  0
    1.6686   -2.0924   -3.9150 H   0  0  0  0  0  0  0  0  0  0  0  0
    3.0037   -1.0915   -3.3604 H   0  0  0  0  0  0  0  0  0  0  0  0
    3.0655   -4.6693   -1.7789 H   0  0  0  0  0  0  0  0  0  0  0  0
    1.2803   -1.0834    0.1694 H   0  0  0  0  0  0  0  0  0  0  0  0
    2.8388   -1.1131    1.8022 H   0  0  0  0  0  0  0  0  0  0  0  0
    5.5290    0.1315    0.9535 H   0  0  0  0  0  0  0  0  0  0  0  0
    5.0564   -0.2299    2.6073 H   0  0  0  0  0  0  0  0  0  0  0  0
    4.8229   -2.6672    1.9881 H   0  0  0  0  0  0  0  0  0  0  0  0
    5.3231   -2.2885    0.3445 H   0  0  0  0  0  0  0  0  0  0  0  0
    7.5198   -1.4178    1.1945 H   0  0  0  0  0  0  0  0  0  0  0  0
    7.2707   -3.1317    1.4787 H   0  0  0  0  0  0  0  0  0  0  0  0
    7.1129   -0.9397    3.4491 H   0  0  0  0  0  0  0  0  0  0  0  0
    6.3648   -4.2551    3.1064 H   0  0  0  0  0  0  0  0  0  0  0  0
    7.6749   -1.7289    5.5619 H   0  0  0  0  0  0  0  0  0  0  0  0
    6.5519   -2.8294    6.0858 H   0  0  0  0  0  0  0  0  0  0  0  0
    3.6080    1.6934    1.1677 H   0  0  0  0  0  0  0  0  0  0  0  0
   -3.0692    0.9141   -1.4877 H   0  0  0  0  0  0  0  0  0  0  0  0
   -3.3044    2.2796   -3.2915 H   0  0  0  0  0  0  0  0  0  0  0  0
   -4.5754    3.1554   -2.4099 H   0  0  0  0  0  0  0  0  0  0  0  0
   -1.5573    3.5868   -2.0840 H   0  0  0  0  0  0  0  0  0  0  0  0
   -2.7842    4.4644   -1.1933 H   0  0  0  0  0  0  0  0  0  0  0  0
   -3.7151    5.4197   -3.2494 H   0  0  0  0  0  0  0  0  0  0  0  0
   -2.5823    4.5277   -4.2573 H   0  0  0  0  0  0  0  0  0  0  0  0
   -2.1851    7.0756   -3.5084 H   0  0  0  0  0  0  0  0  0  0  0  0
   -1.4946    6.3548   -2.0641 H   0  0  0  0  0  0  0  0  0  0  0  0
   -0.6088    5.9355   -4.9730 H   0  0  0  0  0  0  0  0  0  0  0  0
    0.2150    6.8984   -3.7642 H   0  0  0  0  0  0  0  0  0  0  0  0
    0.0392    3.8295   -3.9048 H   0  0  0  0  0  0  0  0  0  0  0  0
    1.8840    5.7538   -2.3817 H   0  0  0  0  0  0  0  0  0  0  0  0
    1.8511    2.6825   -2.8662 H   0  0  0  0  0  0  0  0  0  0  0  0
    3.2968    3.6806   -2.8419 H   0  0  0  0  0  0  0  0  0  0  0  0
    2.9409    4.2070   -0.4381 H   0  0  0  0  0  0  0  0  0  0  0  0
    3.1044    2.4888   -0.7712 H   0  0  0  0  0  0  0  0  0  0  0  0
    0.5454    2.3116   -0.7125 H   0  0  0  0  0  0  0  0  0  0  0  0
    0.5023    4.0042   -0.2180 H   0  0  0  0  0  0  0  0  0  0  0  0
    2.0531    3.3083    1.7768 H   0  0  0  0  0  0  0  0  0  0  0  0
    0.3524    2.8574    1.8370 H   0  0  0  0  0  0  0  0  0  0  0  0
  1  2  1  0
  2  3  1  0
  2  4  1  0
  4  5  1  0
  5  6  2  0
  5  7  1  0
  7  8  1  0
  8  9  1  0
  9 10  2  0
 10 11  1  0
 11 12  2  0
 12 13  1  0
 13 14  2  0
  7 15  1  0
 15 16  1  0
 16 17  2  0
 16 18  1  0
 18 19  1  0
 19 20  1  0
 20 21  2  0
 20 22  1  0
 22 23  1  0
 23 24  1  0
 24 25  2  0
 24 26  1  0
 22 27  1  0
 27 28  1  0
 28 29  2  0
 28 30  1  0
 30 31  1  0
 31 32  1  0
 32 33  1  0
 33 34  1  0
 34 35  1  0
 35 36  2  3
 35 37  1  0
 30 38  1  0
 38 39  1  0
 39 40  2  0
  2 41  1  0
 41 42  2  0
 41 43  1  0
 43 44  1  0
 44 45  1  0
 45 46  1  0
 46 47  1  0
 47 48  1  0
 48 49  1  0
 49 50  2  3
 50 51  1  0
 51 52  1  0
 52 53  1  0
 53 54  1  0
 14  9  1  0
 54 39  1  0
  1 55  1  0
  1 56  1  0
  1 57  1  0
  3 58  1  0
  3 59  1  0
  3 60  1  0
  4 61  1  0
  7 62  1  6
  8 63  1  0
  8 64  1  0
 10 65  1  0
 11 66  1  0
 12 67  1  0
 13 68  1  0
 14 69  1  0
 15 70  1  0
 18 71  1  0
 18 72  1  0
 19 73  1  0
 22 74  1  6
 23 75  1  0
 23 76  1  0
 26 77  1  0
 27 78  1  0
 30 79  1  1
 31 80  1  0
 31 81  1  0
 32 82  1  0
 32 83  1  0
 33 84  1  0
 33 85  1  0
 34 86  1  0
 36 87  1  0
 37 88  1  0
 37 89  1  0
 38 90  1  0
 43 91  1  0
 44 92  1  0
 44 93  1  0
 45 94  1  0
 45 95  1  0
 46 96  1  0
 46 97  1  0
 47 98  1  0
 47 99  1  0
 48100  1  0
 48101  1  0
 49102  1  0
 50103  1  0
 51104  1  0
 51105  1  0
 52106  1  0
 52107  1  0
 53108  1  0
 53109  1  0
 54110  1  0
 54111  1  0
M  END
$$$$
