abl1_m5_07
     RDKit          3D

 28 31  0  0  0  0  0  0  0  0999 V2000
    4.6171   -2.9658   -0.6103 O   0  0  0  0  0  0  0  0  0  0  0  0
    4.1117   -1.8880   -0.3244 C   0  0  0  0  0  0  0  0  0  0  0  0
    4.7471   -0.7129    0.0184 N   0  0  0  0  0  0  0  0  0  0  0  0
    6.1096   -0.5631    0.1975 C   0  0  0  0  0  0  0  0  0  0  0  0
    7.0022   -1.5525    0.1606 N   0  0  0  0  0  0  0  0  0  0  0  0
    8.1785   -0.9559    0.3864 N   0  0  0  0  0  0  0  0  0  0  0  0
    8.0946    0.3936    0.5886 C   0  0  0  0  0  0  0  0  0  0  0  0
    9.0716    1.3568    0.8577 C   0  0  0  0  0  0  0  0  0  0  0  0
    8.6372    2.6773    1.0110 C   0  0  0  0  0  0  0  0  0  0  0  0
    7.2874    3.0106    0.8981 C   0  0  0  0  0  0  0  0  0  0  0  0
    6.3256    2.0283    0.6282 C   0  0  0  0  0  0  0  0  0  0  0  0
    6.7412    0.6902    0.4709 C   0  0  0  0  0  0  0  0  0  0  0  0
    2.6262   -1.7798   -0.3883 C   0  0  0  0  0  0  0  0  0  0  0  0
    1.9035   -1.0114    0.5333 C   0  0  0  0  0  0  0  0  0  0  0  0
    0.5080   -0.9323    0.4432 C   0  0  0  0  0  0  0  0  0  0  0  0
   -0.1727   -1.6258   -0.5596 C   0  0  0  0  0  0  0  0  0  0  0  0
   -1.5260   -1.6335   -0.7553 O   0  0  0  0  0  0  0  0  0  0  0  0
   -2.3198   -0.8550    0.1462 C   0  0  0  0  0  0  0  0  0  0  0  0
   -3.7973   -1.0415   -0.2361 C   0  0  0  0  0  0  0  0  0  0  0  0
   -4.7155   -0.2842    0.6271 N   0  0  0  0  0  0  0  0  0  0  0  0
   -4.7193    1.1679    0.3418 C   0  0  0  0  0  0  0  0  0  0  0  0
   -5.9909    1.6818   -0.3726 C   0  0  0  0  0  0  0  0  0  0  0  0
   -7.2266    1.4133    0.3866 N   0  0  0  0  0  0  0  0  0  0  0  0
   -8.3964    1.4963   -0.4824 C   0  0  0  0  0  0  0  0  0  0  0  0
   -7.1555    0.1219    1.0991 C   0  0  0  0  0  0  0  0  0  0  0  0
   -6.0809   -0.8450    0.5539 C   0  0  0  0  0  0  0  0  0  0  0  0
    0.5515   -2.4058   -1.4653 C   0  0  0  0  0  0  0  0  0  0  0  0
    1.9433   -2.4900   -1.3801 C   0  0  0  0  0  0  0  0  0  0  0  0
  1  2  2  0
  2  3  1  0
  3  4  1  0
  4  5  2  0
  5  6  1  0
  6  7  1  0
  7  8  2  0
  8  9  1  0
  9 10  2  0
 10 11  1  0
 11 12  2  0
  2 13  1  0
 13 14  1  0
 14 15  2  0
 15 16  1  0
 16 17  1  0
 17 18  1  0
 18 19  1  0
 19 20  1  0
 20 21  1  0
 21 22  1  0
 22 23  1  0
 23 24  1  0
 23 25  1  0
 25 26  1  0
 16 27  2  0
 27 28  1  0
 12  4  1  0
 28 13  2  0
 12  7  1  0
 26 20  1  0
M  END
>  <gene>  (1) 
ABL1

>  <formula>  (1) 
C21H25N5O2

>  <clinical_grade>  (1) 
false

>  <fsp3>  (1) 
0.3333

$$$$
