
     RDKit          3D

 49 53  0  0  0  0  0  0  0  0999 V2000
    5.5955   -2.1696   -2.5028 O   0  0  0  0  0  0  0  0  0  0  0  0
    5.2013   -1.4490   -1.5924 C   0  0  0  0  0  0  0  0  0  0  0  0
    3.7492   -1.2863   -1.3408 C   0  0  0  0  0  0  0  0  0  0  0  0
    3.3519   -0.4752   -0.3480 C   0  0  0  0  0  0  0  0  0  0  0  0
    1.9132   -0.3109   -0.0724 C   0  0  0  0  0  0  0  0  0  0  0  0
    1.1152   -1.4018    0.2809 C   0  0  0  0  0  0  0  0  0  0  0  0
   -0.2472   -1.2258    0.5518 C   0  0  0  0  0  0  0  0  0  0  0  0
   -0.8703    0.0349    0.4780 C   0  0  0  0  0  0  0  0  0  0  0  0
   -2.4132    0.2290    0.7942 C   0  0  0  0  0  0  0  0  0  0  0  0
   -3.4202   -0.8598    0.3243 C   0  0  0  0  0  0  0  0  0  0  0  0
   -4.4625    0.2699    0.0649 C   0  0  0  0  0  0  0  0  0  0  0  0
   -5.3761    0.6057    1.2596 C   0  0  0  0  0  0  0  0  0  0  0  0
   -6.7475   -0.0170    1.0317 C   0  0  0  0  0  0  0  0  0  0  0  0
   -7.4021    0.5313   -0.1164 O   0  0  0  0  0  0  0  0  0  0  0  0
   -6.5225    0.9182   -1.1772 C   0  0  0  0  0  0  0  0  0  0  0  0
   -5.2682    0.0563   -1.2253 C   0  0  0  0  0  0  0  0  0  0  0  0
   -3.2370    1.2269   -0.0691 C   0  0  0  0  0  0  0  0  0  0  0  0
   -0.0394    1.1182    0.1331 C   0  0  0  0  0  0  0  0  0  0  0  0
    1.3242    0.9544   -0.1387 C   0  0  0  0  0  0  0  0  0  0  0  0
    4.2262    0.2432    0.4374 N   0  0  0  0  0  0  0  0  0  0  0  0
    5.6132    0.0815    0.3183 C   0  0  0  0  0  0  0  0  0  0  0  0
    6.4936    0.7827    1.1463 C   0  0  0  0  0  0  0  0  0  0  0  0
    7.8759    0.6506    0.9797 C   0  0  0  0  0  0  0  0  0  0  0  0
    8.3901   -0.1709   -0.0250 C   0  0  0  0  0  0  0  0  0  0  0  0
    7.5237   -0.8608   -0.8718 C   0  0  0  0  0  0  0  0  0  0  0  0
    6.1424   -0.7268   -0.7013 C   0  0  0  0  0  0  0  0  0  0  0  0
    3.0764   -1.8410   -1.9814 H   0  0  0  0  0  0  0  0  0  0  0  0
    1.5446   -2.3984    0.3590 H   0  0  0  0  0  0  0  0  0  0  0  0
   -0.8384   -2.0970    0.8301 H   0  0  0  0  0  0  0  0  0  0  0  0
   -2.5385    0.4435    1.8672 H   0  0  0  0  0  0  0  0  0  0  0  0
   -3.6948   -1.6019    1.0802 H   0  0  0  0  0  0  0  0  0  0  0  0
   -3.1062   -1.3945   -0.5814 H   0  0  0  0  0  0  0  0  0  0  0  0
   -5.4921    1.6937    1.3406 H   0  0  0  0  0  0  0  0  0  0  0  0
   -4.9510    0.2491    2.2040 H   0  0  0  0  0  0  0  0  0  0  0  0
   -7.3954    0.1655    1.8949 H   0  0  0  0  0  0  0  0  0  0  0  0
   -6.6736   -1.1028    0.9016 H   0  0  0  0  0  0  0  0  0  0  0  0
   -6.2704    1.9767   -1.0450 H   0  0  0  0  0  0  0  0  0  0  0  0
   -7.0817    0.8289   -2.1138 H   0  0  0  0  0  0  0  0  0  0  0  0
   -5.5633   -0.9977   -1.3048 H   0  0  0  0  0  0  0  0  0  0  0  0
   -4.6726    0.2953   -2.1129 H   0  0  0  0  0  0  0  0  0  0  0  0
   -2.8624    1.3400   -1.0943 H   0  0  0  0  0  0  0  0  0  0  0  0
   -3.3540    2.2268    0.3599 H   0  0  0  0  0  0  0  0  0  0  0  0
   -0.4655    2.1184    0.0718 H   0  0  0  0  0  0  0  0  0  0  0  0
    1.9189    1.8234   -0.4128 H   0  0  0  0  0  0  0  0  0  0  0  0
    3.8568    0.6544    1.2868 H   0  0  0  0  0  0  0  0  0  0  0  0
    6.1138    1.4383    1.9252 H   0  0  0  0  0  0  0  0  0  0  0  0
    8.5543    1.1953    1.6324 H   0  0  0  0  0  0  0  0  0  0  0  0
    9.4655   -0.2688   -0.1524 H   0  0  0  0  0  0  0  0  0  0  0  0
    7.9200   -1.4960   -1.6605 H   0  0  0  0  0  0  0  0  0  0  0  0
  1  2  2  0
  2  3  1  0
  3  4  2  0
  4  5  1  0
  5  6  1  0
  6  7  2  0
  7  8  1  0
  8  9  1  0
  9 10  1  0
 10 11  1  0
 11 12  1  0
 12 13  1  0
 13 14  1  0
 14 15  1  0
 15 16  1  0
 11 17  1  0
  8 18  2  0
 18 19  1  0
  4 20  1  0
 20 21  1  0
 21 22  2  0
 22 23  1  0
 23 24  2  0
 24 25  1  0
 25 26  2  0
 26  2  1  0
 19  5  2  0
 26 21  1  0
 17  9  1  0
 16 11  1  0
  3 27  1  0
  6 28  1  0
  7 29  1  0
  9 30  1  0
 10 31  1  0
 10 32  1  0
 12 33  1  0
 12 34  1  0
 13 35  1  0
 13 36  1  0
 15 37  1  0
 15 38  1  0
 16 39  1  0
 16 40  1  0
 17 41  1  0
 17 42  1  0
 18 43  1  0
 19 44  1  0
 20 45  1  0
 22 46  1  0
 23 47  1  0
 24 48  1  0
 25 49  1  0
M  END
$$$$
