akt1_lead
     RDKit          3D

 30 33  0  0  0  0  0  0  0  0999 V2000
   -6.6632   -1.3994   -3.4251 C   0  0  0  0  0  0  0  0  0  0  0  0
   -5.7671   -0.9207   -2.3255 C   0  0  0  0  0  0  0  0  0  0  0  0
   -4.5079   -1.3843   -2.3080 N   0  0  0  0  0  0  0  0  0  0  0  0
   -3.7157   -0.9402   -1.3230 C   0  0  0  0  0  0  0  0  0  0  0  0
   -2.4018   -1.4238   -1.3346 N   0  0  0  0  0  0  0  0  0  0  0  0
   -1.1828   -0.7895   -1.0294 C   0  0  0  0  0  0  0  0  0  0  0  0
   -0.0397   -1.5887   -0.8828 C   0  0  0  0  0  0  0  0  0  0  0  0
    1.2054   -1.0319   -0.5642 C   0  0  0  0  0  0  0  0  0  0  0  0
    1.3276    0.3436   -0.3837 C   0  0  0  0  0  0  0  0  0  0  0  0
    2.4740    1.0174   -0.0686 O   0  0  0  0  0  0  0  0  0  0  0  0
    3.6753    0.2457    0.0275 C   0  0  0  0  0  0  0  0  0  0  0  0
    4.8320    1.2044    0.3590 C   0  0  0  0  0  0  0  0  0  0  0  0
    6.1705    0.6255    0.5056 N   0  0  0  0  0  0  0  0  0  0  0  0
    6.6518   -0.1044   -0.6687 C   0  0  0  0  0  0  0  0  0  0  0  0
    8.1548   -0.4808   -0.5526 C   0  0  0  0  0  0  0  0  0  0  0  0
    8.6673   -0.7467    0.8111 N   0  0  0  0  0  0  0  0  0  0  0  0
    9.3619    0.4285    1.3428 C   0  0  0  0  0  0  0  0  0  0  0  0
    7.5564   -1.1395    1.6965 C   0  0  0  0  0  0  0  0  0  0  0  0
    6.3491   -0.1617    1.7360 C   0  0  0  0  0  0  0  0  0  0  0  0
    0.1967    1.1481   -0.5271 C   0  0  0  0  0  0  0  0  0  0  0  0
   -1.0458    0.5889   -0.8463 C   0  0  0  0  0  0  0  0  0  0  0  0
   -4.1894   -0.1074   -0.3297 C   0  0  0  0  0  0  0  0  0  0  0  0
   -5.5096    0.3024   -0.3946 C   0  0  0  0  0  0  0  0  0  0  0  0
   -6.0216    1.1693    0.5855 N   0  0  0  0  0  0  0  0  0  0  0  0
   -7.3559    1.7408    0.2834 C   0  0  0  0  0  0  0  0  0  0  0  0
   -8.4900    0.7676    0.6509 C   0  0  0  0  0  0  0  0  0  0  0  0
   -8.3972    0.3475    2.0243 O   0  0  0  0  0  0  0  0  0  0  0  0
   -7.1330   -0.2958    2.2634 C   0  0  0  0  0  0  0  0  0  0  0  0
   -5.9576    0.6545    1.9727 C   0  0  0  0  0  0  0  0  0  0  0  0
   -6.2943   -0.0908   -1.4104 N   0  0  0  0  0  0  0  0  0  0  0  0
  1  2  1  0
  2  3  2  0
  3  4  1  0
  4  5  1  0
  5  6  1  0
  6  7  1  0
  7  8  2  0
  8  9  1  0
  9 10  1  0
 10 11  1  0
 11 12  1  0
 12 13  1  0
 13 14  1  0
 14 15  1  0
 15 16  1  0
 16 17  1  0
 16 18  1  0
 18 19  1  0
  9 20  2  0
 20 21  1  0
  4 22  2  0
 22 23  1  0
 23 24  1  0
 24 25  1  0
 25 26  1  0
 26 27  1  0
 27 28  1  0
 28 29  1  0
 23 30  2  0
 30  2  1  0
 21  6  2  0
 19 13  1  0
 29 24  1  0
M  END
>  <gene>  (1) 
AKT1

>  <formula>  (1) 
C22H32N6O2

>  <clinical_grade>  (1) 
false

>  <fsp3>  (1) 
0.5455

$$$$
