
     RDKit          3D

 80 82  0  0  0  0  0  0  0  0999 V2000
   -0.8499    2.7458    2.0092 O   0  0  0  0  0  0  0  0  0  0  0  0
   -1.1659    2.5754    0.8394 C   0  0  0  0  0  0  0  0  0  0  0  0
   -2.1639    1.7370    0.3845 N   0  0  0  0  0  0  0  0  0  0  0  0
   -2.8582    0.8023    1.2671 C   0  0  1  0  0  0  0  0  0  0  0  0
   -4.3709    1.0662    1.3589 C   0  0  0  0  0  0  0  0  0  0  0  0
   -5.1483    1.0415    0.0624 C   0  0  0  0  0  0  0  0  0  0  0  0
   -6.0297   -0.0118   -0.2127 C   0  0  0  0  0  0  0  0  0  0  0  0
   -6.7537   -0.0394   -1.4062 C   0  0  0  0  0  0  0  0  0  0  0  0
   -6.6071    0.9856   -2.3370 C   0  0  0  0  0  0  0  0  0  0  0  0
   -5.7485    2.0482   -2.0676 C   0  0  0  0  0  0  0  0  0  0  0  0
   -5.0307    2.0814   -0.8710 C   0  0  0  0  0  0  0  0  0  0  0  0
   -2.5073   -0.6637    0.9254 C   0  0  0  0  0  0  0  0  0  0  0  0
   -2.1287   -1.4498    1.7929 O   0  0  0  0  0  0  0  0  0  0  0  0
   -2.6684   -1.0607   -0.3916 N   0  0  0  0  0  0  0  0  0  0  0  0
   -2.3600   -2.4333   -0.8435 C   0  0  2  0  0  0  0  0  0  0  0  0
   -3.4164   -3.4524   -0.4363 C   0  0  0  0  0  0  0  0  0  0  0  0
   -4.7541   -3.3525   -1.1735 C   0  0  0  0  0  0  0  0  0  0  0  0
   -5.4953   -3.5662    0.0486 O   0  0  0  0  0  0  0  0  0  0  0  0
   -4.2826   -3.4093    0.8325 C   0  0  0  0  0  0  0  0  0  0  0  0
   -0.9032   -2.8435   -0.5175 C   0  0  0  0  0  0  0  0  0  0  0  0
   -0.5496   -3.9894   -0.2614 O   0  0  0  0  0  0  0  0  0  0  0  0
   -0.0102   -1.8157   -0.7176 N   0  0  0  0  0  0  0  0  0  0  0  0
    1.3610   -1.8385   -0.1905 C   0  0  1  0  0  0  0  0  0  0  0  0
    2.3456   -2.1698   -1.3032 C   0  0  0  0  0  0  0  0  0  0  0  0
    3.6948   -2.5149   -0.7466 C   0  0  0  0  0  0  0  0  0  0  0  0
    4.0494   -2.4130    0.4192 O   0  0  0  0  0  0  0  0  0  0  0  0
    4.5495   -2.9368   -1.6985 O   0  0  0  0  0  0  0  0  0  0  0  0
    1.5305   -0.4082    0.3718 C   0  0  0  0  0  0  0  0  0  0  0  0
    0.6090    0.4130    0.2989 O   0  0  0  0  0  0  0  0  0  0  0  0
    2.7327   -0.0855    0.9525 N   0  0  0  0  0  0  0  0  0  0  0  0
    2.8968    1.2015    1.6182 C   0  0  1  0  0  0  0  0  0  0  0  0
    4.2603    1.3912    2.3082 C   0  0  0  0  0  0  0  0  0  0  0  0
    5.5056    0.8541    1.5877 C   0  0  0  0  0  0  0  0  0  0  0  0
    6.0528    1.7407    0.4678 C   0  0  0  0  0  0  0  0  0  0  0  0
    6.6548    0.9230   -0.5729 N   0  0  0  0  0  0  0  0  0  0  0  0
    5.9380    0.2187   -1.4758 C   0  0  0  0  0  0  0  0  0  0  0  0
    4.7146    0.3459   -1.8261 N   0  0  0  0  0  0  0  0  0  0  0  0
    6.6779   -0.7438   -2.0642 N   0  0  0  0  0  0  0  0  0  0  0  0
    2.5860    2.3395    0.6128 C   0  0  0  0  0  0  0  0  0  0  0  0
    3.0644    2.3778   -0.5191 O   0  0  0  0  0  0  0  0  0  0  0  0
    1.6702    3.2731    1.0682 N   0  0  0  0  0  0  0  0  0  0  0  0
    0.8811    4.0178    0.0957 C   0  0  0  0  0  0  0  0  0  0  0  0
   -0.4439    3.3497   -0.2682 C   0  0  0  0  0  0  0  0  0  0  0  0
   -1.0380    3.5195   -1.3316 O   0  0  0  0  0  0  0  0  0  0  0  0
   -2.2552    1.6529   -0.6233 H   0  0  0  0  0  0  0  0  0  0  0  0
   -2.4580    0.9527    2.2789 H   0  0  0  0  0  0  0  0  0  0  0  0
   -4.5333    2.0509    1.8183 H   0  0  0  0  0  0  0  0  0  0  0  0
   -4.8127    0.3406    2.0548 H   0  0  0  0  0  0  0  0  0  0  0  0
   -6.1705   -0.8219    0.5016 H   0  0  0  0  0  0  0  0  0  0  0  0
   -7.4366   -0.8627   -1.6040 H   0  0  0  0  0  0  0  0  0  0  0  0
   -7.1747    0.9648   -3.2638 H   0  0  0  0  0  0  0  0  0  0  0  0
   -5.6483    2.8608   -2.7834 H   0  0  0  0  0  0  0  0  0  0  0  0
   -4.3908    2.9388   -0.6698 H   0  0  0  0  0  0  0  0  0  0  0  0
   -3.2546   -0.4877   -0.9893 H   0  0  0  0  0  0  0  0  0  0  0  0
   -2.3697   -2.3674   -1.9411 H   0  0  0  0  0  0  0  0  0  0  0  0
   -3.0118   -4.4657   -0.5828 H   0  0  0  0  0  0  0  0  0  0  0  0
   -4.9405   -4.1439   -1.9056 H   0  0  0  0  0  0  0  0  0  0  0  0
   -4.9922   -2.3856   -1.6224 H   0  0  0  0  0  0  0  0  0  0  0  0
   -4.1358   -4.2486    1.5186 H   0  0  0  0  0  0  0  0  0  0  0  0
   -4.3367   -2.4826    1.4031 H   0  0  0  0  0  0  0  0  0  0  0  0
   -0.4282   -0.8873   -0.7510 H   0  0  0  0  0  0  0  0  0  0  0  0
    1.4115   -2.5477    0.6437 H   0  0  0  0  0  0  0  0  0  0  0  0
    2.4525   -1.3267   -1.9939 H   0  0  0  0  0  0  0  0  0  0  0  0
    1.9883   -3.0394   -1.8673 H   0  0  0  0  0  0  0  0  0  0  0  0
    5.4294   -2.8942   -1.2662 H   0  0  0  0  0  0  0  0  0  0  0  0
    3.3625   -0.8567    1.1744 H   0  0  0  0  0  0  0  0  0  0  0  0
    2.1270    1.2318    2.4010 H   0  0  0  0  0  0  0  0  0  0  0  0
    4.2049    0.8505    3.2633 H   0  0  0  0  0  0  0  0  0  0  0  0
    4.4095    2.4471    2.5657 H   0  0  0  0  0  0  0  0  0  0  0  0
    5.3285   -0.1670    1.2381 H   0  0  0  0  0  0  0  0  0  0  0  0
    6.3032    0.7532    2.3370 H   0  0  0  0  0  0  0  0  0  0  0  0
    6.8312    2.3924    0.8823 H   0  0  0  0  0  0  0  0  0  0  0  0
    5.3118    2.4146    0.0426 H   0  0  0  0  0  0  0  0  0  0  0  0
    7.4703    0.4163   -0.2473 H   0  0  0  0  0  0  0  0  0  0  0  0
    4.2737    1.1411   -1.3370 H   0  0  0  0  0  0  0  0  0  0  0  0
    7.5468   -0.3674   -2.4259 H   0  0  0  0  0  0  0  0  0  0  0  0
    6.1317   -1.1118   -2.8422 H   0  0  0  0  0  0  0  0  0  0  0  0
    1.1685    3.0423    1.9253 H   0  0  0  0  0  0  0  0  0  0  0  0
    1.4569    4.1745   -0.8212 H   0  0  0  0  0  0  0  0  0  0  0  0
    0.6512    4.9882    0.5460 H   0  0  0  0  0  0  0  0  0  0  0  0
  1  2  2  0
  2  3  1  0
  3  4  1  0
  4  5  1  0
  5  6  1  0
  6  7  2  0
  7  8  1  0
  8  9  2  0
  9 10  1  0
 10 11  2  0
  4 12  1  0
 12 13  2  0
 12 14  1  0
 14 15  1  0
 15 16  1  0
 16 17  1  0
 17 18  1  0
 18 19  1  0
 15 20  1  0
 20 21  2  0
 20 22  1  0
 22 23  1  0
 23 24  1  0
 24 25  1  0
 25 26  2  0
 25 27  1  0
 23 28  1  0
 28 29  2  0
 28 30  1  0
 30 31  1  0
 31 32  1  0
 32 33  1  0
 33 34  1  0
 34 35  1  0
 35 36  1  0
 36 37  2  3
 36 38  1  0
 31 39  1  0
 39 40  2  0
 39 41  1  0
 41 42  1  0
 42 43  1  0
 43 44  2  0
 43  2  1  0
 11  6  1  0
 19 16  1  0
  3 45  1  0
  4 46  1  1
  5 47  1  0
  5 48  1  0
  7 49  1  0
  8 50  1  0
  9 51  1  0
 10 52  1  0
 11 53  1  0
 14 54  1  0
 15 55  1  6
 16 56  1  0
 17 57  1  0
 17 58  1  0
 19 59  1  0
 19 60  1  0
 22 61  1  0
 23 62  1  1
 24 63  1  0
 24 64  1  0
 27 65  1  0
 30 66  1  0
 31 67  1  1
 32 68  1  0
 32 69  1  0
 33 70  1  0
 33 71  1  0
 34 72  1  0
 34 73  1  0
 35 74  1  0
 37 75  1  0
 38 76  1  0
 38 77  1  0
 41 78  1  0
 42 79  1  0
 42 80  1  0
M  END
$$$$
