
     RDKit          3D

 29 31  0  0  0  0  0  0  0  0999 V2000
   18.4434   -1.6920   13.9967 F   0  0  0  0  0  0  0  0  0  0  0  0
   17.2800   -1.0779   14.2468 C   0  0  0  0  0  0  0  0  0  0  0  0
   16.1406   -1.8421   14.4803 C   0  0  0  0  0  0  0  0  0  0  0  0
   14.9237   -1.2077   14.7420 C   0  0  0  0  0  0  0  0  0  0  0  0
   14.8574    0.1941   14.7586 C   0  0  0  0  0  0  0  0  0  0  0  0
   13.5817    0.9150   15.0359 C   0  0  0  0  0  0  0  0  0  0  0  0
   13.6474    1.9541   15.6798 O   0  0  0  0  0  0  0  0  0  0  0  0
   12.4661    0.3245   14.4810 N   0  0  0  0  0  0  0  0  0  0  0  0
   11.1672    0.7747   14.6299 C   0  0  0  0  0  0  0  0  0  0  0  0
   10.7925    1.7945   15.4019 N   0  0  0  0  0  0  0  0  0  0  0  0
    9.4658    1.8695   15.2439 N   0  0  0  0  0  0  0  0  0  0  0  0
    8.9458    0.9252   14.4034 C   0  0  0  0  0  0  0  0  0  0  0  0
    7.6351    0.6680   13.9902 C   0  0  0  0  0  0  0  0  0  0  0  0
    7.4457   -0.3967   13.1039 C   0  0  0  0  0  0  0  0  0  0  0  0
    8.5218   -1.1629   12.6560 C   0  0  0  0  0  0  0  0  0  0  0  0
    9.8272   -0.8864   13.0834 C   0  0  0  0  0  0  0  0  0  0  0  0
   10.0413    0.1821   13.9776 C   0  0  0  0  0  0  0  0  0  0  0  0
   16.0184    0.9505   14.5402 C   0  0  0  0  0  0  0  0  0  0  0  0
   17.2314    0.3112   14.2779 C   0  0  0  0  0  0  0  0  0  0  0  0
   16.2128   -2.9254   14.4698 H   0  0  0  0  0  0  0  0  0  0  0  0
   14.0502   -1.8148   14.9638 H   0  0  0  0  0  0  0  0  0  0  0  0
   12.5805   -0.4598   13.8595 H   0  0  0  0  0  0  0  0  0  0  0  0
    8.9674    2.5949   15.7460 H   0  0  0  0  0  0  0  0  0  0  0  0
    6.7974    1.2639   14.3375 H   0  0  0  0  0  0  0  0  0  0  0  0
    6.4408   -0.6302   12.7575 H   0  0  0  0  0  0  0  0  0  0  0  0
    8.3454   -1.9847   11.9654 H   0  0  0  0  0  0  0  0  0  0  0  0
   10.6526   -1.4915   12.7229 H   0  0  0  0  0  0  0  0  0  0  0  0
   15.9756    2.0379   14.5761 H   0  0  0  0  0  0  0  0  0  0  0  0
   18.1351    0.8873   14.1048 H   0  0  0  0  0  0  0  0  0  0  0  0
  1  2  1  0
  2  3  1  0
  3  4  2  0
  4  5  1  0
  5  6  1  0
  6  7  2  0
  6  8  1  0
  8  9  1  0
  9 10  2  0
 10 11  1  0
 11 12  1  0
 12 13  2  0
 13 14  1  0
 14 15  2  0
 15 16  1  0
 16 17  2  0
  5 18  2  0
 18 19  1  0
 19  2  2  0
 17  9  1  0
 17 12  1  0
  3 20  1  0
  4 21  1  0
  8 22  1  0
 11 23  1  0
 13 24  1  0
 14 25  1  0
 15 26  1  0
 16 27  1  0
 18 28  1  0
 19 29  1  0
M  END
>  <formula>  (1) 
C14H10FN3O

$$$$
