
     RDKit          3D

 38 40  0  0  0  0  0  0  0  0999 V2000
    6.8056   10.3107    8.4049 O   0  0  0  0  0  0  0  0  0  0  0  0
    6.5017    9.5352    7.5068 C   0  0  0  0  0  0  0  0  0  0  0  0
    7.3664    8.8189    6.6975 N   0  0  0  0  0  0  0  0  0  0  0  0
    8.7736    8.7636    6.7935 C   0  0  0  0  0  0  0  0  0  0  0  0
    9.4539    8.0443    5.7988 C   0  0  0  0  0  0  0  0  0  0  0  0
   10.8468    7.9366    5.8254 C   0  0  0  0  0  0  0  0  0  0  0  0
   11.5600    8.5459    6.8485 C   0  0  0  0  0  0  0  0  0  0  0  0
   12.8949    8.4430    6.8756 F   0  0  0  0  0  0  0  0  0  0  0  0
   10.9054    9.2581    7.8439 C   0  0  0  0  0  0  0  0  0  0  0  0
    9.5110    9.3660    7.8174 C   0  0  0  0  0  0  0  0  0  0  0  0
    5.0627    9.3590    7.2040 C   0  0  0  0  0  0  0  0  0  0  0  0
    4.1879   10.4319    7.3224 C   0  0  0  0  0  0  0  0  0  0  0  0
    2.8348   10.2438    7.0315 C   0  0  0  0  0  0  0  0  0  0  0  0
    2.3634    8.9866    6.6446 C   0  0  0  0  0  0  0  0  0  0  0  0
    1.0253    8.7924    6.3263 N   0  0  0  0  0  0  0  0  0  0  0  0
   -0.0092    9.4228    7.1666 C   0  0  0  0  0  0  0  0  0  0  0  0
   -1.0465    8.3863    7.6326 C   0  0  0  0  0  0  0  0  0  0  0  0
   -1.6927    7.6936    6.5561 O   0  0  0  0  0  0  0  0  0  0  0  0
   -0.8244    7.4454    5.4383 C   0  0  0  0  0  0  0  0  0  0  0  0
    0.6709    7.4668    5.7917 C   0  0  0  0  0  0  0  0  0  0  0  0
    3.2197    7.9449    6.5300 N   0  0  0  0  0  0  0  0  0  0  0  0
    4.5288    8.1399    6.8264 C   0  0  0  0  0  0  0  0  0  0  0  0
    6.9686    8.3397    5.8994 H   0  0  0  0  0  0  0  0  0  0  0  0
    8.9130    7.5608    4.9894 H   0  0  0  0  0  0  0  0  0  0  0  0
   11.3770    7.3834    5.0570 H   0  0  0  0  0  0  0  0  0  0  0  0
   11.4784    9.7265    8.6378 H   0  0  0  0  0  0  0  0  0  0  0  0
    9.0318    9.9250    8.6152 H   0  0  0  0  0  0  0  0  0  0  0  0
    4.5502   11.4106    7.6270 H   0  0  0  0  0  0  0  0  0  0  0  0
    2.1629   11.0940    7.0869 H   0  0  0  0  0  0  0  0  0  0  0  0
   -0.5077   10.1901    6.5630 H   0  0  0  0  0  0  0  0  0  0  0  0
    0.4074    9.9079    8.0566 H   0  0  0  0  0  0  0  0  0  0  0  0
   -1.8278    8.8781    8.2210 H   0  0  0  0  0  0  0  0  0  0  0  0
   -0.5759    7.6376    8.2809 H   0  0  0  0  0  0  0  0  0  0  0  0
   -1.0454    8.2050    4.6793 H   0  0  0  0  0  0  0  0  0  0  0  0
   -1.1001    6.4728    5.0185 H   0  0  0  0  0  0  0  0  0  0  0  0
    1.2502    7.2519    4.8859 H   0  0  0  0  0  0  0  0  0  0  0  0
    0.8782    6.6889    6.5376 H   0  0  0  0  0  0  0  0  0  0  0  0
    5.1357    7.2421    6.7590 H   0  0  0  0  0  0  0  0  0  0  0  0
  1  2  2  0
  2  3  1  0
  3  4  1  0
  4  5  1  0
  5  6  2  0
  6  7  1  0
  7  8  1  0
  7  9  2  0
  9 10  1  0
  2 11  1  0
 11 12  2  0
 12 13  1  0
 13 14  2  0
 14 15  1  0
 15 16  1  0
 16 17  1  0
 17 18  1  0
 18 19  1  0
 19 20  1  0
 14 21  1  0
 21 22  2  0
 10  4  2  0
 22 11  1  0
 20 15  1  0
  3 23  1  0
  5 24  1  0
  6 25  1  0
  9 26  1  0
 10 27  1  0
 12 28  1  0
 13 29  1  0
 16 30  1  0
 16 31  1  0
 17 32  1  0
 17 33  1  0
 19 34  1  0
 19 35  1  0
 20 36  1  0
 20 37  1  0
 22 38  1  0
M  END
>  <gene>  (1) 
ALK5

>  <candidate_id>  (1) 
alk5_x00

$$$$
