
     RDKit          3D

 37 39  0  0  0  0  0  0  0  0999 V2000
    1.9933    8.1154    8.6555 O   0  0  0  0  0  0  0  0  0  0  0  0
    2.5056    8.4578    7.5968 C   0  0  0  0  0  0  0  0  0  0  0  0
    1.8499    8.9245    6.4702 N   0  0  0  0  0  0  0  0  0  0  0  0
    0.4552    9.0184    6.2737 C   0  0  0  0  0  0  0  0  0  0  0  0
    0.0170    9.6155    5.0817 C   0  0  0  0  0  0  0  0  0  0  0  0
   -1.3475    9.7413    4.8086 C   0  0  0  0  0  0  0  0  0  0  0  0
   -2.2748    9.2673    5.7262 C   0  0  0  0  0  0  0  0  0  0  0  0
   -3.5829    9.3868    5.4656 F   0  0  0  0  0  0  0  0  0  0  0  0
   -1.8616    8.6697    6.9088 C   0  0  0  0  0  0  0  0  0  0  0  0
   -0.4956    8.5437    7.1824 C   0  0  0  0  0  0  0  0  0  0  0  0
    3.9838    8.4233    7.4987 C   0  0  0  0  0  0  0  0  0  0  0  0
    4.7646    8.6890    8.6168 C   0  0  0  0  0  0  0  0  0  0  0  0
    6.1567    8.6519    8.5028 C   0  0  0  0  0  0  0  0  0  0  0  0
    6.7576    8.3508    7.2798 C   0  0  0  0  0  0  0  0  0  0  0  0
    8.1197    8.3015    7.1363 N   0  0  0  0  0  0  0  0  0  0  0  0
    8.7082    8.0128    5.8350 C   0  0  0  0  0  0  0  0  0  0  0  0
   10.2072    8.0602    6.1165 C   0  0  0  0  0  0  0  0  0  0  0  0
   10.3149    9.1518    7.1695 C   0  0  0  0  0  0  0  0  0  0  0  0
    9.0717    8.9396    8.0343 C   0  0  0  0  0  0  0  0  0  0  0  0
    5.9921    8.0650    6.2001 N   0  0  0  0  0  0  0  0  0  0  0  0
    4.6425    8.0927    6.3284 C   0  0  0  0  0  0  0  0  0  0  0  0
    2.4178    9.3144    5.7286 H   0  0  0  0  0  0  0  0  0  0  0  0
    0.7279    9.9928    4.3512 H   0  0  0  0  0  0  0  0  0  0  0  0
   -1.6907   10.2044    3.8891 H   0  0  0  0  0  0  0  0  0  0  0  0
   -2.5999    8.3022    7.6145 H   0  0  0  0  0  0  0  0  0  0  0  0
   -0.2083    8.0650    8.1135 H   0  0  0  0  0  0  0  0  0  0  0  0
    4.3017    8.9194    9.5731 H   0  0  0  0  0  0  0  0  0  0  0  0
    6.7578    8.8459    9.3843 H   0  0  0  0  0  0  0  0  0  0  0  0
    8.4357    8.7855    5.1059 H   0  0  0  0  0  0  0  0  0  0  0  0
    8.4148    7.0303    5.4501 H   0  0  0  0  0  0  0  0  0  0  0  0
   10.5445    7.1036    6.5336 H   0  0  0  0  0  0  0  0  0  0  0  0
   10.7962    8.2731    5.2202 H   0  0  0  0  0  0  0  0  0  0  0  0
   10.2714   10.1369    6.6891 H   0  0  0  0  0  0  0  0  0  0  0  0
   11.2412    9.0963    7.7482 H   0  0  0  0  0  0  0  0  0  0  0  0
    9.2941    8.2726    8.8745 H   0  0  0  0  0  0  0  0  0  0  0  0
    8.7187    9.9012    8.4231 H   0  0  0  0  0  0  0  0  0  0  0  0
    4.1086    7.8102    5.4264 H   0  0  0  0  0  0  0  0  0  0  0  0
  1  2  2  0
  2  3  1  0
  3  4  1  0
  4  5  1  0
  5  6  2  0
  6  7  1  0
  7  8  1  0
  7  9  2  0
  9 10  1  0
  2 11  1  0
 11 12  2  0
 12 13  1  0
 13 14  2  0
 14 15  1  0
 15 16  1  0
 16 17  1  0
 17 18  1  0
 18 19  1  0
 14 20  1  0
 20 21  2  0
 10  4  2  0
 21 11  1  0
 19 15  1  0
  3 22  1  0
  5 23  1  0
  6 24  1  0
  9 25  1  0
 10 26  1  0
 12 27  1  0
 13 28  1  0
 16 29  1  0
 16 30  1  0
 17 31  1  0
 17 32  1  0
 18 33  1  0
 18 34  1  0
 19 35  1  0
 19 36  1  0
 21 37  1  0
M  END
>  <gene>  (1) 
ALK5

>  <candidate_id>  (1) 
alk5_r2_00

$$$$
