
     RDKit          3D

 32 33  0  0  0  0  0  0  0  0999 V2000
  -11.0209    1.4800   -7.7695 O   0  0  0  0  0  0  0  0  0  0  0  0
  -11.6430    1.4590   -8.8195 C   0  0  0  0  0  0  0  0  0  0  0  0
  -11.1659    0.8545   -9.9876 N   0  0  0  0  0  0  0  0  0  0  0  0
   -9.7333    0.0191  -10.1098 S   0  0  0  0  0  0  0  0  0  0  0  0
   -9.6686   -0.4104  -11.4928 O   0  0  0  0  0  0  0  0  0  0  0  0
   -9.6315   -0.9403   -9.0347 O   0  0  0  0  0  0  0  0  0  0  0  0
   -8.5058    1.2826   -9.8912 C   0  0  0  0  0  0  0  0  0  0  0  0
   -7.9671    1.5109   -8.6229 C   0  0  0  0  0  0  0  0  0  0  0  0
   -6.9809    2.4854   -8.4565 C   0  0  0  0  0  0  0  0  0  0  0  0
   -6.5214    3.2315   -9.5543 C   0  0  0  0  0  0  0  0  0  0  0  0
   -5.4379    4.2692   -9.3780 C   0  0  0  0  0  0  0  0  0  0  0  0
   -5.4194    4.8208   -8.1328 F   0  0  0  0  0  0  0  0  0  0  0  0
   -4.1932    3.7576   -9.5812 F   0  0  0  0  0  0  0  0  0  0  0  0
   -5.5591    5.3143  -10.2441 F   0  0  0  0  0  0  0  0  0  0  0  0
   -7.0552    2.9701  -10.8280 C   0  0  0  0  0  0  0  0  0  0  0  0
   -8.0434    1.9980  -10.9993 C   0  0  0  0  0  0  0  0  0  0  0  0
  -12.9788    2.1111   -8.9255 C   0  0  0  0  0  0  0  0  0  0  0  0
  -13.7076    2.3037   -7.7425 C   0  0  0  0  0  0  0  0  0  0  0  0
  -14.9723    2.8936   -7.7793 C   0  0  0  0  0  0  0  0  0  0  0  0
  -15.5158    3.2988   -8.9965 C   0  0  0  0  0  0  0  0  0  0  0  0
  -14.7955    3.1205  -10.1770 C   0  0  0  0  0  0  0  0  0  0  0  0
  -13.5291    2.5292  -10.1458 C   0  0  0  0  0  0  0  0  0  0  0  0
  -11.7258    0.7672  -10.8268 H   0  0  0  0  0  0  0  0  0  0  0  0
   -8.3169    0.9425   -7.7619 H   0  0  0  0  0  0  0  0  0  0  0  0
   -6.5713    2.6610   -7.4620 H   0  0  0  0  0  0  0  0  0  0  0  0
   -6.6957    3.5243  -11.6948 H   0  0  0  0  0  0  0  0  0  0  0  0
   -8.4376    1.8011  -11.9940 H   0  0  0  0  0  0  0  0  0  0  0  0
  -13.2942    1.9900   -6.7848 H   0  0  0  0  0  0  0  0  0  0  0  0
  -15.5318    3.0368   -6.8577 H   0  0  0  0  0  0  0  0  0  0  0  0
  -16.5004    3.7604   -9.0242 H   0  0  0  0  0  0  0  0  0  0  0  0
  -15.2197    3.4506  -11.1228 H   0  0  0  0  0  0  0  0  0  0  0  0
  -12.9857    2.4381  -11.0809 H   0  0  0  0  0  0  0  0  0  0  0  0
  1  2  2  0
  2  3  1  0
  3  4  1  0
  4  5  2  0
  4  6  2  0
  4  7  1  0
  7  8  1  0
  8  9  2  0
  9 10  1  0
 10 11  1  0
 11 12  1  0
 11 13  1  0
 11 14  1  0
 10 15  2  0
 15 16  1  0
  2 17  1  0
 17 18  2  0
 18 19  1  0
 19 20  2  0
 20 21  1  0
 21 22  2  0
 16  7  2  0
 22 17  1  0
  3 23  1  0
  8 24  1  0
  9 25  1  0
 15 26  1  0
 16 27  1  0
 18 28  1  0
 19 29  1  0
 20 30  1  0
 21 31  1  0
 22 32  1  0
M  END
>  <formula>  (1) 
C14H10F3NO3S

$$$$
