
     RDKit          3D

 42 44  0  0  0  0  0  0  0  0999 V2000
  -12.5908    4.1988   -8.9847 O   0  0  0  0  0  0  0  0  0  0  0  0
  -12.0544    3.4675   -9.8015 C   0  0  0  0  0  0  0  0  0  0  0  0
  -12.7223    2.9047  -10.8944 N   0  0  0  0  0  0  0  0  0  0  0  0
  -14.3159    3.1798  -11.2832 S   0  0  0  0  0  0  0  0  0  0  0  0
  -14.5413    2.4063  -12.4887 O   0  0  0  0  0  0  0  0  0  0  0  0
  -14.5896    4.5982  -11.2578 O   0  0  0  0  0  0  0  0  0  0  0  0
  -15.1967    2.3820   -9.9668 C   0  0  0  0  0  0  0  0  0  0  0  0
  -15.5426    1.0317  -10.0835 C   0  0  0  0  0  0  0  0  0  0  0  0
  -16.2609    0.4155   -9.0584 C   0  0  0  0  0  0  0  0  0  0  0  0
  -16.6373    1.1477   -7.9310 C   0  0  0  0  0  0  0  0  0  0  0  0
  -16.3030    2.4989   -7.8261 C   0  0  0  0  0  0  0  0  0  0  0  0
  -15.5871    3.1225   -8.8478 C   0  0  0  0  0  0  0  0  0  0  0  0
  -10.6140    3.1102   -9.6698 C   0  0  0  0  0  0  0  0  0  0  0  0
   -9.7928    3.9562   -8.9212 C   0  0  0  0  0  0  0  0  0  0  0  0
   -8.4264    3.6777   -8.7776 C   0  0  0  0  0  0  0  0  0  0  0  0
   -7.8288    2.5536   -9.3676 C   0  0  0  0  0  0  0  0  0  0  0  0
   -6.4820    2.2813   -9.2239 N   0  0  0  0  0  0  0  0  0  0  0  0
   -5.7545    1.4023  -10.1554 C   0  0  0  0  0  0  0  0  0  0  0  0
   -4.2725    1.8092  -10.2216 C   0  0  0  0  0  0  0  0  0  0  0  0
   -3.5944    1.7536   -8.9595 O   0  0  0  0  0  0  0  0  0  0  0  0
   -4.4578    1.9973   -7.8405 C   0  0  0  0  0  0  0  0  0  0  0  0
   -5.6657    2.8941   -8.1618 C   0  0  0  0  0  0  0  0  0  0  0  0
   -8.6784    1.7137  -10.1061 C   0  0  0  0  0  0  0  0  0  0  0  0
  -10.0486    1.9782  -10.2594 C   0  0  0  0  0  0  0  0  0  0  0  0
  -12.2459    2.3765  -11.6146 H   0  0  0  0  0  0  0  0  0  0  0  0
  -15.2656    0.4588  -10.9651 H   0  0  0  0  0  0  0  0  0  0  0  0
  -16.5344   -0.6337   -9.1395 H   0  0  0  0  0  0  0  0  0  0  0  0
  -17.1988    0.6662   -7.1338 H   0  0  0  0  0  0  0  0  0  0  0  0
  -16.6020    3.0681   -6.9492 H   0  0  0  0  0  0  0  0  0  0  0  0
  -15.3289    4.1768   -8.7625 H   0  0  0  0  0  0  0  0  0  0  0  0
  -10.2044    4.8467   -8.4483 H   0  0  0  0  0  0  0  0  0  0  0  0
   -7.8317    4.3843   -8.2043 H   0  0  0  0  0  0  0  0  0  0  0  0
   -6.1656    1.4694  -11.1692 H   0  0  0  0  0  0  0  0  0  0  0  0
   -5.8421    0.3669   -9.8061 H   0  0  0  0  0  0  0  0  0  0  0  0
   -4.1776    2.8329  -10.6029 H   0  0  0  0  0  0  0  0  0  0  0  0
   -3.7334    1.1536  -10.9130 H   0  0  0  0  0  0  0  0  0  0  0  0
   -4.7984    1.0233   -7.4694 H   0  0  0  0  0  0  0  0  0  0  0  0
   -3.8513    2.4522   -7.0508 H   0  0  0  0  0  0  0  0  0  0  0  0
   -6.2449    3.0192   -7.2398 H   0  0  0  0  0  0  0  0  0  0  0  0
   -5.3208    3.8780   -8.5003 H   0  0  0  0  0  0  0  0  0  0  0  0
   -8.2901    0.8042  -10.5584 H   0  0  0  0  0  0  0  0  0  0  0  0
  -10.6453    1.2601  -10.8125 H   0  0  0  0  0  0  0  0  0  0  0  0
  1  2  2  0
  2  3  1  0
  3  4  1  0
  4  5  2  0
  4  6  2  0
  4  7  1  0
  7  8  2  0
  8  9  1  0
  9 10  2  0
 10 11  1  0
 11 12  2  0
  2 13  1  0
 13 14  1  0
 14 15  2  0
 15 16  1  0
 16 17  1  0
 17 18  1  0
 18 19  1  0
 19 20  1  0
 20 21  1  0
 21 22  1  0
 16 23  2  0
 23 24  1  0
 12  7  1  0
 24 13  2  0
 22 17  1  0
  3 25  1  0
  8 26  1  0
  9 27  1  0
 10 28  1  0
 11 29  1  0
 12 30  1  0
 14 31  1  0
 15 32  1  0
 18 33  1  0
 18 34  1  0
 19 35  1  0
 19 36  1  0
 21 37  1  0
 21 38  1  0
 22 39  1  0
 22 40  1  0
 23 41  1  0
 24 42  1  0
M  END
>  <formula>  (1) 
C17H18N2O4S

$$$$
