
     RDKit          3D

 42 44  0  0  0  0  0  0  0  0999 V2000
   -9.7974    4.1716   -6.2271 O   0  0  0  0  0  0  0  0  0  0  0  0
   -9.8281    3.5309   -7.2648 C   0  0  0  0  0  0  0  0  0  0  0  0
   -8.6877    3.1743   -7.9987 N   0  0  0  0  0  0  0  0  0  0  0  0
   -7.1471    3.6067   -7.5209 S   0  0  0  0  0  0  0  0  0  0  0  0
   -6.7828    2.8400   -6.3507 O   0  0  0  0  0  0  0  0  0  0  0  0
   -7.0208    5.0455   -7.5867 O   0  0  0  0  0  0  0  0  0  0  0  0
   -6.2105    2.9457   -8.8870 C   0  0  0  0  0  0  0  0  0  0  0  0
   -5.9225    3.7581   -9.9863 C   0  0  0  0  0  0  0  0  0  0  0  0
   -5.1959    3.2321  -11.0555 C   0  0  0  0  0  0  0  0  0  0  0  0
   -4.7598    1.8998  -11.0319 C   0  0  0  0  0  0  0  0  0  0  0  0
   -3.9424    1.3512  -12.1654 C   0  0  0  0  0  0  0  0  0  0  0  0
   -5.0338    1.1059   -9.9094 C   0  0  0  0  0  0  0  0  0  0  0  0
   -5.7599    1.6243   -8.8363 C   0  0  0  0  0  0  0  0  0  0  0  0
  -11.1254    3.0798   -7.8420 C   0  0  0  0  0  0  0  0  0  0  0  0
  -12.2810    3.7916   -7.4996 C   0  0  0  0  0  0  0  0  0  0  0  0
  -13.5224    3.4231   -8.0289 C   0  0  0  0  0  0  0  0  0  0  0  0
  -13.6405    2.3347   -8.9075 C   0  0  0  0  0  0  0  0  0  0  0  0
  -14.9476    1.9449   -9.4610 C   0  0  0  0  0  0  0  0  0  0  0  0
  -16.0426    1.6888   -8.6188 C   0  0  0  0  0  0  0  0  0  0  0  0
  -17.2838    1.3173   -9.1430 C   0  0  0  0  0  0  0  0  0  0  0  0
  -17.4512    1.1967  -10.5200 C   0  0  0  0  0  0  0  0  0  0  0  0
  -16.3793    1.4468  -11.3728 C   0  0  0  0  0  0  0  0  0  0  0  0
  -15.1383    1.8170  -10.8471 C   0  0  0  0  0  0  0  0  0  0  0  0
  -12.4748    1.6224   -9.2355 C   0  0  0  0  0  0  0  0  0  0  0  0
  -11.2286    1.9860   -8.7097 C   0  0  0  0  0  0  0  0  0  0  0  0
   -8.7635    2.8249   -8.9457 H   0  0  0  0  0  0  0  0  0  0  0  0
   -6.2470    4.7964  -10.0144 H   0  0  0  0  0  0  0  0  0  0  0  0
   -4.9624    3.8706  -11.9056 H   0  0  0  0  0  0  0  0  0  0  0  0
   -2.8790    1.5317  -11.9812 H   0  0  0  0  0  0  0  0  0  0  0  0
   -4.2234    1.8227  -13.1130 H   0  0  0  0  0  0  0  0  0  0  0  0
   -4.1051    0.2741  -12.2781 H   0  0  0  0  0  0  0  0  0  0  0  0
   -4.6734    0.0798   -9.8621 H   0  0  0  0  0  0  0  0  0  0  0  0
   -5.9586    1.0002   -7.9673 H   0  0  0  0  0  0  0  0  0  0  0  0
  -12.2222    4.6421   -6.8215 H   0  0  0  0  0  0  0  0  0  0  0  0
  -14.4025    4.0029   -7.7546 H   0  0  0  0  0  0  0  0  0  0  0  0
  -15.9325    1.7664   -7.5388 H   0  0  0  0  0  0  0  0  0  0  0  0
  -18.1178    1.1207   -8.4742 H   0  0  0  0  0  0  0  0  0  0  0  0
  -18.4166    0.9089  -10.9280 H   0  0  0  0  0  0  0  0  0  0  0  0
  -16.5082    1.3574  -12.4483 H   0  0  0  0  0  0  0  0  0  0  0  0
  -14.3187    2.0193  -11.5334 H   0  0  0  0  0  0  0  0  0  0  0  0
  -12.5371    0.7558   -9.8925 H   0  0  0  0  0  0  0  0  0  0  0  0
  -10.3671    1.3753   -8.9625 H   0  0  0  0  0  0  0  0  0  0  0  0
  1  2  2  0
  2  3  1  0
  3  4  1  0
  4  5  2  0
  4  6  2  0
  4  7  1  0
  7  8  1  0
  8  9  2  0
  9 10  1  0
 10 11  1  0
 10 12  2  0
 12 13  1  0
  2 14  1  0
 14 15  1  0
 15 16  2  0
 16 17  1  0
 17 18  1  0
 18 19  2  0
 19 20  1  0
 20 21  2  0
 21 22  1  0
 22 23  2  0
 17 24  2  0
 24 25  1  0
 13  7  2  0
 25 14  2  0
 23 18  1  0
  3 26  1  0
  8 27  1  0
  9 28  1  0
 11 29  1  0
 11 30  1  0
 11 31  1  0
 12 32  1  0
 13 33  1  0
 15 34  1  0
 16 35  1  0
 19 36  1  0
 20 37  1  0
 21 38  1  0
 22 39  1  0
 23 40  1  0
 24 41  1  0
 25 42  1  0
M  END
>  <formula>  (1) 
C20H17NO3S

$$$$
