
     RDKit          3D

 21 23  0  0  0  0  0  0  0  0999 V2000
    6.0567    2.4045    0.1287 N   0  0  0  0  0  0  0  0  0  0  0  0
    6.3505    0.9733    0.0950 C   0  0  0  0  0  0  0  0  0  0  0  0
    5.0981    0.1206   -0.1171 C   0  0  0  0  0  0  0  0  0  0  0  0
    4.0882    0.1970    1.0321 C   0  0  0  0  0  0  0  0  0  0  0  0
    4.7047   -0.2304    2.2481 O   0  0  0  0  0  0  0  0  0  0  0  0
    2.8626   -0.6522    0.7646 C   0  0  0  0  0  0  0  0  0  0  0  0
    2.9188   -2.0502    0.8289 C   0  0  0  0  0  0  0  0  0  0  0  0
    1.7789   -2.8030    0.5699 C   0  0  0  0  0  0  0  0  0  0  0  0
    1.8462   -4.1394    0.6382 F   0  0  0  0  0  0  0  0  0  0  0  0
    0.5689   -2.1991    0.2422 C   0  0  0  0  0  0  0  0  0  0  0  0
    0.4954   -0.8109    0.1690 C   0  0  0  0  0  0  0  0  0  0  0  0
   -0.6171   -0.0791   -0.1412 O   0  0  0  0  0  0  0  0  0  0  0  0
   -1.8183   -0.8024   -0.4190 C   0  0  0  0  0  0  0  0  0  0  0  0
   -2.9189    0.2104   -0.7511 C   0  0  0  0  0  0  0  0  0  0  0  0
   -3.2913    1.1025    0.4564 C   0  0  0  0  0  0  0  0  0  0  0  0
   -4.8096    0.8858    0.5910 C   0  0  0  0  0  0  0  0  0  0  0  0
   -5.5213    1.5357   -0.6076 C   0  0  0  0  0  0  0  0  0  0  0  0
   -5.1716    0.5938   -1.7694 C   0  0  0  0  0  0  0  0  0  0  0  0
   -4.2687   -0.4592   -1.1004 C   0  0  0  0  0  0  0  0  0  0  0  0
   -4.9407   -0.6011    0.2668 C   0  0  0  0  0  0  0  0  0  0  0  0
    1.6407   -0.0467    0.4282 C   0  0  0  0  0  0  0  0  0  0  0  0
  1  2  1  0
  2  3  1  0
  3  4  1  0
  4  5  1  0
  4  6  1  0
  6  7  2  0
  7  8  1  0
  8  9  1  0
  8 10  2  0
 10 11  1  0
 11 12  1  0
 12 13  1  0
 13 14  1  0
 14 15  1  0
 15 16  1  0
 16 17  1  0
 17 18  1  0
 18 19  1  0
 19 20  1  0
 11 21  2  0
 21  6  1  0
 19 14  1  0
 20 16  1  0
M  END
$$$$
