
     RDKit          3D

 18 19  0  0  0  0  0  0  0  0999 V2000
    4.6408   -2.1318    0.1170 N   0  0  0  0  0  0  0  0  0  0  0  0
    3.5004   -1.3289   -0.3139 C   0  0  0  0  0  0  0  0  0  0  0  0
    3.8726    0.1521   -0.3520 C   0  0  0  0  0  0  0  0  0  0  0  0
    2.7224    1.0352   -0.8527 C   0  0  0  0  0  0  0  0  0  0  0  0
    3.2122    2.3696   -1.0039 O   0  0  0  0  0  0  0  0  0  0  0  0
    1.5118    1.0568    0.0544 C   0  0  0  0  0  0  0  0  0  0  0  0
    1.5910    1.5653    1.3569 C   0  0  0  0  0  0  0  0  0  0  0  0
    0.4625    1.5718    2.1690 C   0  0  0  0  0  0  0  0  0  0  0  0
    0.5513    2.0629    3.4122 F   0  0  0  0  0  0  0  0  0  0  0  0
   -0.7594    1.0820    1.7182 C   0  0  0  0  0  0  0  0  0  0  0  0
   -0.8573    0.5752    0.4257 C   0  0  0  0  0  0  0  0  0  0  0  0
   -1.9838    0.0626   -0.1550 O   0  0  0  0  0  0  0  0  0  0  0  0
   -3.1712    0.0268    0.6368 C   0  0  0  0  0  0  0  0  0  0  0  0
   -4.3034   -0.5841   -0.1692 C   0  0  0  0  0  0  0  0  0  0  0  0
   -4.0560   -1.9162   -0.8883 C   0  0  0  0  0  0  0  0  0  0  0  0
   -4.6766   -1.4039   -2.0977 O   0  0  0  0  0  0  0  0  0  0  0  0
   -4.5707   -0.0500   -1.5820 C   0  0  0  0  0  0  0  0  0  0  0  0
    0.2756    0.5674   -0.3986 C   0  0  0  0  0  0  0  0  0  0  0  0
  1  2  1  0
  2  3  1  0
  3  4  1  0
  4  5  1  0
  4  6  1  0
  6  7  2  0
  7  8  1  0
  8  9  1  0
  8 10  2  0
 10 11  1  0
 11 12  1  0
 12 13  1  0
 13 14  1  0
 14 15  1  0
 15 16  1  0
 16 17  1  0
 11 18  2  0
 18  6  1  0
 17 14  1  0
M  END
$$$$
