
     RDKit          3D

 30 32  0  0  0  0  0  0  0  0999 V2000
  -40.2652    9.6993  -14.0923 O   0  0  0  0  0  0  0  0  0  0  0  0
  -40.3822   10.9155  -13.9920 C   0  0  0  0  0  0  0  0  0  0  0  0
  -39.3350   11.8077  -13.8347 N   0  0  0  0  0  0  0  0  0  0  0  0
  -37.9532   11.5270  -13.8078 C   0  0  0  0  0  0  0  0  0  0  0  0
  -37.0886   12.6056  -13.5744 C   0  0  0  0  0  0  0  0  0  0  0  0
  -35.7043   12.4173  -13.5351 C   0  0  0  0  0  0  0  0  0  0  0  0
  -35.1698   11.1474  -13.7307 C   0  0  0  0  0  0  0  0  0  0  0  0
  -36.0197   10.0697  -13.9660 C   0  0  0  0  0  0  0  0  0  0  0  0
  -37.4055   10.2584  -14.0053 C   0  0  0  0  0  0  0  0  0  0  0  0
  -41.7105   11.5508  -14.0092 C   0  0  0  0  0  0  0  0  0  0  0  0
  -42.0030   12.8949  -14.1970 C   0  0  0  0  0  0  0  0  0  0  0  0
  -43.3632   13.0583  -14.1513 N   0  0  0  0  0  0  0  0  0  0  0  0
  -43.9822   11.8509  -13.9437 C   0  0  0  0  0  0  0  0  0  0  0  0
  -45.3447   11.5465  -13.8322 C   0  0  0  0  0  0  0  0  0  0  0  0
  -45.6969   10.2103  -13.6248 C   0  0  0  0  0  0  0  0  0  0  0  0
  -44.7234    9.2201  -13.5338 C   0  0  0  0  0  0  0  0  0  0  0  0
  -43.3664    9.5433  -13.6477 C   0  0  0  0  0  0  0  0  0  0  0  0
  -42.9785   10.8849  -13.8574 C   0  0  0  0  0  0  0  0  0  0  0  0
  -39.5886   12.7705  -13.6757 H   0  0  0  0  0  0  0  0  0  0  0  0
  -37.4782   13.6079  -13.4179 H   0  0  0  0  0  0  0  0  0  0  0  0
  -35.0451   13.2616  -13.3515 H   0  0  0  0  0  0  0  0  0  0  0  0
  -34.0940   10.9958  -13.7008 H   0  0  0  0  0  0  0  0  0  0  0  0
  -35.6086    9.0753  -14.1210 H   0  0  0  0  0  0  0  0  0  0  0  0
  -38.0271    9.3894  -14.1962 H   0  0  0  0  0  0  0  0  0  0  0  0
  -41.3733   13.7543  -14.3802 H   0  0  0  0  0  0  0  0  0  0  0  0
  -43.8512   13.9362  -14.2656 H   0  0  0  0  0  0  0  0  0  0  0  0
  -46.1071   12.3152  -13.9047 H   0  0  0  0  0  0  0  0  0  0  0  0
  -46.7466    9.9403  -13.5348 H   0  0  0  0  0  0  0  0  0  0  0  0
  -45.0145    8.1849  -13.3741 H   0  0  0  0  0  0  0  0  0  0  0  0
  -42.6155    8.7600  -13.5766 H   0  0  0  0  0  0  0  0  0  0  0  0
  1  2  2  0
  2  3  1  0
  3  4  1  0
  4  5  2  0
  5  6  1  0
  6  7  2  0
  7  8  1  0
  8  9  2  0
  2 10  1  0
 10 11  2  0
 11 12  1  0
 12 13  1  0
 13 14  2  0
 14 15  1  0
 15 16  2  0
 16 17  1  0
 17 18  2  0
  9  4  1  0
 18 10  1  0
 18 13  1  0
  3 19  1  0
  5 20  1  0
  6 21  1  0
  7 22  1  0
  8 23  1  0
  9 24  1  0
 11 25  1  0
 12 26  1  0
 14 27  1  0
 15 28  1  0
 16 29  1  0
 17 30  1  0
M  END
>  <gene>  (1) 
FLT3

>  <candidate_id>  (1) 
flt3_carboxamide_indole

$$$$
