
     RDKit          3D

 30 32  0  0  0  0  0  0  0  0999 V2000
  -39.4302   11.4990  -11.6665 O   0  0  0  0  0  0  0  0  0  0  0  0
  -39.2311   11.4016  -12.8736 C   0  0  0  0  0  0  0  0  0  0  0  0
  -37.8129   11.4372  -13.3511 C   0  0  0  0  0  0  0  0  0  0  0  0
  -36.7907   11.5790  -12.3979 C   0  0  0  0  0  0  0  0  0  0  0  0
  -35.4488   11.6180  -12.7893 C   0  0  0  0  0  0  0  0  0  0  0  0
  -35.1113   11.5159  -14.1375 C   0  0  0  0  0  0  0  0  0  0  0  0
  -36.1154   11.3749  -15.0932 C   0  0  0  0  0  0  0  0  0  0  0  0
  -37.4526   11.3365  -14.6973 C   0  0  0  0  0  0  0  0  0  0  0  0
  -38.3833   11.1994  -15.6551 F   0  0  0  0  0  0  0  0  0  0  0  0
  -40.2058   11.2605  -13.8445 N   0  0  0  0  0  0  0  0  0  0  0  0
  -41.6061   11.1987  -13.6687 C   0  0  0  0  0  0  0  0  0  0  0  0
  -42.2410   11.2751  -12.4290 C   0  0  0  0  0  0  0  0  0  0  0  0
  -43.6371   11.2082  -12.3129 C   0  0  0  0  0  0  0  0  0  0  0  0
  -44.3809   11.0615  -13.4865 C   0  0  0  0  0  0  0  0  0  0  0  0
  -45.7413   10.9693  -13.6738 N   0  0  0  0  0  0  0  0  0  0  0  0
  -46.0263   10.8336  -15.0070 C   0  0  0  0  0  0  0  0  0  0  0  0
  -44.8339   10.8378  -15.6946 C   0  0  0  0  0  0  0  0  0  0  0  0
  -43.7860   10.9814  -14.7435 C   0  0  0  0  0  0  0  0  0  0  0  0
  -42.3806   11.0512  -14.8329 C   0  0  0  0  0  0  0  0  0  0  0  0
  -37.0362   11.6602  -11.3397 H   0  0  0  0  0  0  0  0  0  0  0  0
  -34.6695   11.7283  -12.0382 H   0  0  0  0  0  0  0  0  0  0  0  0
  -34.0677   11.5463  -14.4419 H   0  0  0  0  0  0  0  0  0  0  0  0
  -35.8656   11.2944  -16.1471 H   0  0  0  0  0  0  0  0  0  0  0  0
  -39.8903   11.1915  -14.8060 H   0  0  0  0  0  0  0  0  0  0  0  0
  -41.6734   11.3891  -11.5104 H   0  0  0  0  0  0  0  0  0  0  0  0
  -44.1120   11.2695  -11.3392 H   0  0  0  0  0  0  0  0  0  0  0  0
  -46.4247   10.9983  -12.9299 H   0  0  0  0  0  0  0  0  0  0  0  0
  -47.0485   10.7462  -15.3493 H   0  0  0  0  0  0  0  0  0  0  0  0
  -44.7246   10.7474  -16.7672 H   0  0  0  0  0  0  0  0  0  0  0  0
  -41.9143   10.9891  -15.8109 H   0  0  0  0  0  0  0  0  0  0  0  0
  1  2  2  0
  2  3  1  0
  3  4  2  0
  4  5  1  0
  5  6  2  0
  6  7  1  0
  7  8  2  0
  8  9  1  0
  2 10  1  0
 10 11  1  0
 11 12  2  0
 12 13  1  0
 13 14  2  0
 14 15  1  0
 15 16  1  0
 16 17  2  0
 17 18  1  0
 18 19  2  0
  8  3  1  0
 19 11  1  0
 18 14  1  0
  4 20  1  0
  5 21  1  0
  6 22  1  0
  7 23  1  0
 10 24  1  0
 12 25  1  0
 13 26  1  0
 15 27  1  0
 16 28  1  0
 17 29  1  0
 19 30  1  0
M  END
>  <gene>  (1) 
FLT3

>  <candidate_id>  (1) 
flt3_r2_06

$$$$
