
     RDKit          3D

 30 32  0  0  0  0  0  0  0  0999 V2000
  -40.9065   10.6180  -15.2463 O   0  0  0  0  0  0  0  0  0  0  0  0
  -40.8224   11.0333  -14.0963 C   0  0  0  0  0  0  0  0  0  0  0  0
  -41.8742   11.5454  -13.3551 N   0  0  0  0  0  0  0  0  0  0  0  0
  -43.2286   11.6509  -13.7328 C   0  0  0  0  0  0  0  0  0  0  0  0
  -44.0982   12.2643  -12.8173 C   0  0  0  0  0  0  0  0  0  0  0  0
  -45.4569   12.4068  -13.1106 C   0  0  0  0  0  0  0  0  0  0  0  0
  -45.9482   11.9344  -14.3195 C   0  0  0  0  0  0  0  0  0  0  0  0
  -47.2501   12.0697  -14.6020 F   0  0  0  0  0  0  0  0  0  0  0  0
  -45.1057   11.3226  -15.2373 C   0  0  0  0  0  0  0  0  0  0  0  0
  -43.7453   11.1798  -14.9438 C   0  0  0  0  0  0  0  0  0  0  0  0
  -39.5302   11.0394  -13.3904 C   0  0  0  0  0  0  0  0  0  0  0  0
  -39.3080   11.2141  -12.0315 C   0  0  0  0  0  0  0  0  0  0  0  0
  -37.9603   11.1387  -11.7928 N   0  0  0  0  0  0  0  0  0  0  0  0
  -37.2803   10.9110  -12.9639 C   0  0  0  0  0  0  0  0  0  0  0  0
  -35.9049   10.7624  -13.1890 C   0  0  0  0  0  0  0  0  0  0  0  0
  -35.4870   10.5309  -14.5013 C   0  0  0  0  0  0  0  0  0  0  0  0
  -36.4136   10.4529  -15.5318 C   0  0  0  0  0  0  0  0  0  0  0  0
  -35.9824   10.2300  -16.7810 F   0  0  0  0  0  0  0  0  0  0  0  0
  -37.7803   10.6015  -15.2996 C   0  0  0  0  0  0  0  0  0  0  0  0
  -38.2329   10.8369  -13.9833 C   0  0  0  0  0  0  0  0  0  0  0  0
  -41.6392   11.9282  -12.4521 H   0  0  0  0  0  0  0  0  0  0  0  0
  -43.7320   12.6408  -11.8658 H   0  0  0  0  0  0  0  0  0  0  0  0
  -46.1317   12.8818  -12.4058 H   0  0  0  0  0  0  0  0  0  0  0  0
  -45.5067   10.9575  -16.1776 H   0  0  0  0  0  0  0  0  0  0  0  0
  -43.1192   10.6924  -15.6847 H   0  0  0  0  0  0  0  0  0  0  0  0
  -39.9828   11.3664  -11.2006 H   0  0  0  0  0  0  0  0  0  0  0  0
  -37.5216   11.2250  -10.8857 H   0  0  0  0  0  0  0  0  0  0  0  0
  -35.1847   10.8225  -12.3793 H   0  0  0  0  0  0  0  0  0  0  0  0
  -34.4319   10.4086  -14.7273 H   0  0  0  0  0  0  0  0  0  0  0  0
  -38.4764   10.5329  -16.1302 H   0  0  0  0  0  0  0  0  0  0  0  0
  1  2  2  0
  2  3  1  0
  3  4  1  0
  4  5  1  0
  5  6  2  0
  6  7  1  0
  7  8  1  0
  7  9  2  0
  9 10  1  0
  2 11  1  0
 11 12  2  0
 12 13  1  0
 13 14  1  0
 14 15  2  0
 15 16  1  0
 16 17  2  0
 17 18  1  0
 17 19  1  0
 19 20  2  0
 10  4  2  0
 20 11  1  0
 20 14  1  0
  3 21  1  0
  5 22  1  0
  6 23  1  0
  9 24  1  0
 10 25  1  0
 12 26  1  0
 13 27  1  0
 15 28  1  0
 16 29  1  0
 19 30  1  0
M  END
>  <gene>  (1) 
FLT3

>  <candidate_id>  (1) 
flt3_r2_00

$$$$
