
     RDKit          3D

 77 78  0  0  0  0  0  0  0  0999 V2000
    0.3550   -3.8328    0.7289 O   0  0  0  0  0  0  0  0  0  0  0  0
   -0.5715   -3.6946   -0.0649 C   0  0  0  0  0  0  0  0  0  0  0  0
   -0.3314   -3.5147   -1.4280 N   0  0  0  0  0  0  0  0  0  0  0  0
   -1.3502   -3.4577   -2.4655 C   0  0  0  0  0  0  0  0  0  0  0  0
    0.9983   -3.0091   -1.7719 C   0  0  0  0  0  0  0  0  0  0  0  0
    1.0749   -1.5138   -1.4210 C   0  0  0  0  0  0  0  0  0  0  0  0
    0.0843   -0.7808   -1.3952 O   0  0  0  0  0  0  0  0  0  0  0  0
    2.3534   -1.0469   -1.1712 N   0  0  0  0  0  0  0  0  0  0  0  0
    2.5065    0.2116   -0.4335 C   0  0  1  0  0  0  0  0  0  0  0  0
    3.9817    0.5696   -0.1843 C   0  0  0  0  0  0  0  0  0  0  0  0
    4.7368   -0.4824    0.5968 C   0  0  0  0  0  0  0  0  0  0  0  0
    4.3756   -0.7980    1.9137 C   0  0  0  0  0  0  0  0  0  0  0  0
    5.0637   -1.7875    2.6175 C   0  0  0  0  0  0  0  0  0  0  0  0
    6.1230   -2.4645    2.0171 C   0  0  0  0  0  0  0  0  0  0  0  0
    6.4978   -2.1514    0.7125 C   0  0  0  0  0  0  0  0  0  0  0  0
    5.8095   -1.1647    0.0052 C   0  0  0  0  0  0  0  0  0  0  0  0
    1.8750    1.3924   -1.2032 C   0  0  0  0  0  0  0  0  0  0  0  0
    2.0954    1.6160   -2.3907 O   0  0  0  0  0  0  0  0  0  0  0  0
    1.0407    2.1763   -0.4270 N   0  0  0  0  0  0  0  0  0  0  0  0
    0.1224    3.1626   -1.0239 C   0  0  2  0  0  0  0  0  0  0  0  0
    0.4775    4.6164   -0.5803 C   0  0  0  0  0  0  0  0  0  0  0  0
   -0.3383    5.6541   -1.3787 C   0  0  0  0  0  0  0  0  0  0  0  0
    1.9704    4.9010   -0.8690 C   0  0  0  0  0  0  0  0  0  0  0  0
    0.2285    4.8287    0.9243 C   0  0  0  0  0  0  0  0  0  0  0  0
   -1.3366    2.7085   -0.7030 C   0  0  0  0  0  0  0  0  0  0  0  0
   -2.3164    3.4473   -0.7270 O   0  0  0  0  0  0  0  0  0  0  0  0
   -1.4705    1.3567   -0.4795 N   0  0  0  0  0  0  0  0  0  0  0  0
   -2.7460    0.7051   -0.1834 C   0  0  1  0  0  0  0  0  0  0  0  0
   -3.4275    0.3129   -1.4930 C   0  0  0  0  0  0  0  0  0  0  0  0
   -4.9117    0.2303   -1.3088 C   0  0  0  0  0  0  0  0  0  0  0  0
   -5.4936   -0.0369   -0.2701 O   0  0  0  0  0  0  0  0  0  0  0  0
   -5.5898    0.4112   -2.4554 O   0  0  0  0  0  0  0  0  0  0  0  0
   -2.3958   -0.5095    0.7198 C   0  0  0  0  0  0  0  0  0  0  0  0
   -1.3015   -0.6357    1.2703 O   0  0  0  0  0  0  0  0  0  0  0  0
   -3.3911   -1.4548    0.8943 N   0  0  0  0  0  0  0  0  0  0  0  0
   -3.2404   -2.4741    1.9576 C   0  0  1  0  0  0  0  0  0  0  0  0
   -4.5913   -3.1470    2.2328 C   0  0  0  0  0  0  0  0  0  0  0  0
   -5.5811   -2.1458    2.4767 O   0  0  0  0  0  0  0  0  0  0  0  0
   -2.2304   -3.5901    1.6211 C   0  0  0  0  0  0  0  0  0  0  0  0
   -1.9423   -4.4550    2.4477 O   0  0  0  0  0  0  0  0  0  0  0  0
   -1.8977   -3.6609    0.2836 N   0  0  0  0  0  0  0  0  0  0  0  0
   -1.6348   -2.4170   -2.6357 H   0  0  0  0  0  0  0  0  0  0  0  0
   -2.2349   -4.0322   -2.1789 H   0  0  0  0  0  0  0  0  0  0  0  0
   -0.9471   -3.8846   -3.3884 H   0  0  0  0  0  0  0  0  0  0  0  0
    1.1864   -3.1408   -2.8419 H   0  0  0  0  0  0  0  0  0  0  0  0
    1.7596   -3.5609   -1.2107 H   0  0  0  0  0  0  0  0  0  0  0  0
    3.0271   -1.7647   -0.9265 H   0  0  0  0  0  0  0  0  0  0  0  0
    1.9795    0.0763    0.5192 H   0  0  0  0  0  0  0  0  0  0  0  0
    4.4849    0.7427   -1.1453 H   0  0  0  0  0  0  0  0  0  0  0  0
    4.0514    1.5199    0.3617 H   0  0  0  0  0  0  0  0  0  0  0  0
    3.5537   -0.2823    2.4055 H   0  0  0  0  0  0  0  0  0  0  0  0
    4.7707   -2.0322    3.6356 H   0  0  0  0  0  0  0  0  0  0  0  0
    6.6568   -3.2349    2.5675 H   0  0  0  0  0  0  0  0  0  0  0  0
    7.3279   -2.6759    0.2462 H   0  0  0  0  0  0  0  0  0  0  0  0
    6.1183   -0.9337   -1.0124 H   0  0  0  0  0  0  0  0  0  0  0  0
    0.7795    1.8349    0.4926 H   0  0  0  0  0  0  0  0  0  0  0  0
    0.2093    3.0968   -2.1162 H   0  0  0  0  0  0  0  0  0  0  0  0
   -1.4018    5.6323   -1.1272 H   0  0  0  0  0  0  0  0  0  0  0  0
    0.0100    6.6728   -1.1704 H   0  0  0  0  0  0  0  0  0  0  0  0
   -0.2413    5.4872   -2.4572 H   0  0  0  0  0  0  0  0  0  0  0  0
    2.6310    4.2684   -0.2661 H   0  0  0  0  0  0  0  0  0  0  0  0
    2.2272    5.9414   -0.6379 H   0  0  0  0  0  0  0  0  0  0  0  0
    2.2068    4.7280   -1.9250 H   0  0  0  0  0  0  0  0  0  0  0  0
   -0.8261    4.6929    1.1846 H   0  0  0  0  0  0  0  0  0  0  0  0
    0.8159    4.1310    1.5310 H   0  0  0  0  0  0  0  0  0  0  0  0
    0.5096    5.8436    1.2286 H   0  0  0  0  0  0  0  0  0  0  0  0
   -0.6913    0.7376   -0.7194 H   0  0  0  0  0  0  0  0  0  0  0  0
   -3.3569    1.3973    0.4079 H   0  0  0  0  0  0  0  0  0  0  0  0
   -3.0682   -0.6499   -1.8687 H   0  0  0  0  0  0  0  0  0  0  0  0
   -3.2333    1.0729   -2.2598 H   0  0  0  0  0  0  0  0  0  0  0  0
   -6.5371    0.3540   -2.2087 H   0  0  0  0  0  0  0  0  0  0  0  0
   -4.3406   -1.0663    0.8628 H   0  0  0  0  0  0  0  0  0  0  0  0
   -2.8910   -1.9504    2.8556 H   0  0  0  0  0  0  0  0  0  0  0  0
   -4.9193   -3.7417    1.3730 H   0  0  0  0  0  0  0  0  0  0  0  0
   -4.5325   -3.8029    3.1079 H   0  0  0  0  0  0  0  0  0  0  0  0
   -6.3966   -2.6077    2.7415 H   0  0  0  0  0  0  0  0  0  0  0  0
   -2.3682   -2.9443   -0.2482 H   0  0  0  0  0  0  0  0  0  0  0  0
  1  2  2  0
  2  3  1  0
  3  4  1  0
  3  5  1  0
  5  6  1  0
  6  7  2  0
  6  8  1  0
  8  9  1  0
  9 10  1  0
 10 11  1  0
 11 12  2  0
 12 13  1  0
 13 14  2  0
 14 15  1  0
 15 16  2  0
  9 17  1  0
 17 18  2  0
 17 19  1  0
 19 20  1  0
 20 21  1  0
 21 22  1  0
 21 23  1  0
 21 24  1  0
 20 25  1  0
 25 26  2  0
 25 27  1  0
 27 28  1  0
 28 29  1  0
 29 30  1  0
 30 31  2  0
 30 32  1  0
 28 33  1  0
 33 34  2  0
 33 35  1  0
 35 36  1  0
 36 37  1  0
 37 38  1  0
 36 39  1  0
 39 40  2  0
 39 41  1  0
 41  2  1  0
 16 11  1  0
  4 42  1  0
  4 43  1  0
  4 44  1  0
  5 45  1  0
  5 46  1  0
  8 47  1  0
  9 48  1  1
 10 49  1  0
 10 50  1  0
 12 51  1  0
 13 52  1  0
 14 53  1  0
 15 54  1  0
 16 55  1  0
 19 56  1  0
 20 57  1  6
 22 58  1  0
 22 59  1  0
 22 60  1  0
 23 61  1  0
 23 62  1  0
 23 63  1  0
 24 64  1  0
 24 65  1  0
 24 66  1  0
 27 67  1  0
 28 68  1  1
 29 69  1  0
 29 70  1  0
 32 71  1  0
 35 72  1  0
 36 73  1  1
 37 74  1  0
 37 75  1  0
 38 76  1  0
 41 77  1  0
M  END
$$$$
