gsk_x10
     RDKit          3D

 21 23  0  0  0  0  0  0  0  0999 V2000
    0.2824    3.2714    1.0132 C   0  0  0  0  0  0  0  0  0  0  0  0
    0.0482    1.8880    0.4940 C   0  0  0  0  0  0  0  0  0  0  0  0
   -1.2193    1.5308    0.2299 N   0  0  0  0  0  0  0  0  0  0  0  0
   -1.4380    0.2947   -0.2443 C   0  0  0  0  0  0  0  0  0  0  0  0
   -2.7454   -0.0989   -0.5235 N   0  0  0  0  0  0  0  0  0  0  0  0
   -3.1714   -1.4599   -0.1458 C   0  0  0  0  0  0  0  0  0  0  0  0
   -4.4516   -1.4196    0.7066 C   0  0  0  0  0  0  0  0  0  0  0  0
   -5.5505   -0.7603    0.0631 O   0  0  0  0  0  0  0  0  0  0  0  0
   -5.1475    0.3554   -0.7483 C   0  0  0  0  0  0  0  0  0  0  0  0
   -3.7783    0.9406   -0.3689 C   0  0  0  0  0  0  0  0  0  0  0  0
   -0.3732   -0.5508   -0.4992 C   0  0  0  0  0  0  0  0  0  0  0  0
    0.9082   -0.1039   -0.2249 C   0  0  0  0  0  0  0  0  0  0  0  0
    1.9811   -0.9894   -0.4838 N   0  0  0  0  0  0  0  0  0  0  0  0
    3.3483   -0.8409   -0.1508 C   0  0  0  0  0  0  0  0  0  0  0  0
    3.7921   -0.1509    0.9819 C   0  0  0  0  0  0  0  0  0  0  0  0
    5.1555   -0.0873    1.2958 C   0  0  0  0  0  0  0  0  0  0  0  0
    6.0955   -0.7313    0.4916 C   0  0  0  0  0  0  0  0  0  0  0  0
    5.6721   -1.4478   -0.6241 C   0  0  0  0  0  0  0  0  0  0  0  0
    4.3137   -1.5033   -0.9266 C   0  0  0  0  0  0  0  0  0  0  0  0
    3.9190   -2.2057   -2.0017 F   0  0  0  0  0  0  0  0  0  0  0  0
    1.1229    1.1139    0.2886 N   0  0  0  0  0  0  0  0  0  0  0  0
  1  2  1  0
  2  3  1  0
  3  4  2  0
  4  5  1  0
  5  6  1  0
  6  7  1  0
  7  8  1  0
  8  9  1  0
  9 10  1  0
  4 11  1  0
 11 12  2  0
 12 13  1  0
 13 14  1  0
 14 15  2  0
 15 16  1  0
 16 17  2  0
 17 18  1  0
 18 19  2  0
 19 20  1  0
 12 21  1  0
 21  2  2  0
 10  5  1  0
 19 14  1  0
M  END
>  <gene>  (1) 
GSK3B

>  <formula>  (1) 
C15H17FN4O

>  <clinical_grade>  (1) 
false

>  <fsp3>  (1) 
0.3333

$$$$
