
     RDKit          3D

 78 79  0  0  0  0  0  0  0  0999 V2000
   -3.2098   -3.9124   -1.9909 O   0  0  0  0  0  0  0  0  0  0  0  0
   -2.5144   -3.5304   -1.0637 C   0  0  0  0  0  0  0  0  0  0  0  0
   -2.9441   -3.2121    0.2042 N   0  0  0  0  0  0  0  0  0  0  0  0
   -4.3200   -3.3682    0.6086 C   0  0  0  0  0  0  0  0  0  0  0  0
   -4.6329   -2.6197    1.8998 C   0  0  0  0  0  0  0  0  0  0  0  0
   -4.3991   -1.1024    1.8659 C   0  0  0  0  0  0  0  0  0  0  0  0
   -5.3025   -0.3363    0.8915 C   0  0  0  0  0  0  0  0  0  0  0  0
   -4.6925   -0.0516   -0.4863 C   0  0  0  0  0  0  0  0  0  0  0  0
   -3.5560    0.9365   -0.4492 C   0  0  0  0  0  0  0  0  0  0  0  0
   -3.6454    2.1812   -0.9451 C   0  0  0  0  0  0  0  0  0  0  0  0
   -2.5679    3.2308   -0.9997 C   0  0  0  0  0  0  0  0  0  0  0  0
   -1.1271    2.7668   -0.7471 C   0  0  0  0  0  0  0  0  0  0  0  0
   -0.1548    3.9466   -0.8456 C   0  0  0  0  0  0  0  0  0  0  0  0
    1.3319    3.5670   -0.8195 C   0  0  0  0  0  0  0  0  0  0  0  0
    1.7656    2.8053    0.4405 C   0  0  1  0  0  0  0  0  0  0  0  0
    1.5907    1.2748    0.2908 C   0  0  0  0  0  0  0  0  0  0  0  0
    1.6092    0.7026   -0.7978 O   0  0  0  0  0  0  0  0  0  0  0  0
    1.4457    0.6200    1.4973 N   0  0  0  0  0  0  0  0  0  0  0  0
    1.3826   -0.8331    1.6979 C   0  0  2  0  0  0  0  0  0  0  0  0
    2.7280   -1.5860    1.7006 C   0  0  0  0  0  0  0  0  0  0  0  0
    3.6092   -1.5042    0.4783 C   0  0  0  0  0  0  0  0  0  0  0  0
    3.5066   -2.4555   -0.5460 C   0  0  0  0  0  0  0  0  0  0  0  0
    4.3235   -2.3742   -1.6750 C   0  0  0  0  0  0  0  0  0  0  0  0
    5.2619   -1.3507   -1.7853 C   0  0  0  0  0  0  0  0  0  0  0  0
    5.3885   -0.4113   -0.7642 C   0  0  0  0  0  0  0  0  0  0  0  0
    4.5697   -0.4904    0.3632 C   0  0  0  0  0  0  0  0  0  0  0  0
    0.2649   -1.5187    0.8799 C   0  0  0  0  0  0  0  0  0  0  0  0
   -0.7683   -1.9483    1.3942 O   0  0  0  0  0  0  0  0  0  0  0  0
    0.4913   -1.5994   -0.4722 N   0  0  0  0  0  0  0  0  0  0  0  0
   -0.5972   -1.8870   -1.4047 C   0  0  1  0  0  0  0  0  0  0  0  0
   -0.1599   -1.6360   -2.8486 C   0  0  0  0  0  0  0  0  0  0  0  0
    0.0154   -0.2364   -3.0865 O   0  0  0  0  0  0  0  0  0  0  0  0
   -1.0215   -3.3363   -1.2687 C   0  0  0  0  0  0  0  0  0  0  0  0
   -0.2683   -4.3030   -1.2808 O   0  0  0  0  0  0  0  0  0  0  0  0
    3.1838    3.0493    0.7116 N   0  0  0  0  0  0  0  0  0  0  0  0
    3.7044    2.8792    1.9715 C   0  0  0  0  0  0  0  0  0  0  0  0
    5.1759    3.1704    2.0845 C   0  0  0  0  0  0  0  0  0  0  0  0
    3.0244    2.5168    2.9281 O   0  0  0  0  0  0  0  0  0  0  0  0
   -2.2394   -2.9584    0.9027 H   0  0  0  0  0  0  0  0  0  0  0  0
   -4.4890   -4.4410    0.7574 H   0  0  0  0  0  0  0  0  0  0  0  0
   -4.9793   -3.0543   -0.2066 H   0  0  0  0  0  0  0  0  0  0  0  0
   -5.6772   -2.8155    2.1739 H   0  0  0  0  0  0  0  0  0  0  0  0
   -4.0180   -3.0383    2.7076 H   0  0  0  0  0  0  0  0  0  0  0  0
   -4.6164   -0.7312    2.8765 H   0  0  0  0  0  0  0  0  0  0  0  0
   -3.3418   -0.8828    1.6899 H   0  0  0  0  0  0  0  0  0  0  0  0
   -5.5674    0.6254    1.3511 H   0  0  0  0  0  0  0  0  0  0  0  0
   -6.2471   -0.8783    0.7599 H   0  0  0  0  0  0  0  0  0  0  0  0
   -4.3370   -0.9722   -0.9572 H   0  0  0  0  0  0  0  0  0  0  0  0
   -5.4908    0.3290   -1.1366 H   0  0  0  0  0  0  0  0  0  0  0  0
   -2.6271    0.5873   -0.0084 H   0  0  0  0  0  0  0  0  0  0  0  0
   -4.5971    2.5002   -1.3700 H   0  0  0  0  0  0  0  0  0  0  0  0
   -2.8290    4.0203   -0.2841 H   0  0  0  0  0  0  0  0  0  0  0  0
   -2.6112    3.6866   -1.9974 H   0  0  0  0  0  0  0  0  0  0  0  0
   -0.8554    2.0007   -1.4818 H   0  0  0  0  0  0  0  0  0  0  0  0
   -1.0545    2.3178    0.2496 H   0  0  0  0  0  0  0  0  0  0  0  0
   -0.3416    4.4924   -1.7790 H   0  0  0  0  0  0  0  0  0  0  0  0
   -0.3595    4.6491   -0.0280 H   0  0  0  0  0  0  0  0  0  0  0  0
    1.8991    4.5051   -0.8873 H   0  0  0  0  0  0  0  0  0  0  0  0
    1.5788    3.0035   -1.7276 H   0  0  0  0  0  0  0  0  0  0  0  0
    1.1872    3.1535    1.3059 H   0  0  0  0  0  0  0  0  0  0  0  0
    1.7270    1.1651    2.3154 H   0  0  0  0  0  0  0  0  0  0  0  0
    1.0189   -0.9152    2.7336 H   0  0  0  0  0  0  0  0  0  0  0  0
    2.5367   -2.6468    1.9119 H   0  0  0  0  0  0  0  0  0  0  0  0
    3.3172   -1.2293    2.5569 H   0  0  0  0  0  0  0  0  0  0  0  0
    2.7870   -3.2707   -0.4764 H   0  0  0  0  0  0  0  0  0  0  0  0
    4.2307   -3.1150   -2.4658 H   0  0  0  0  0  0  0  0  0  0  0  0
    5.9009   -1.2925   -2.6623 H   0  0  0  0  0  0  0  0  0  0  0  0
    6.1328    0.3760   -0.8440 H   0  0  0  0  0  0  0  0  0  0  0  0
    4.6931    0.2355    1.1610 H   0  0  0  0  0  0  0  0  0  0  0  0
    1.2063   -0.9487   -0.8023 H   0  0  0  0  0  0  0  0  0  0  0  0
   -1.4249   -1.2196   -1.1441 H   0  0  0  0  0  0  0  0  0  0  0  0
   -0.9176   -1.9936   -3.5532 H   0  0  0  0  0  0  0  0  0  0  0  0
    0.7826   -2.1433   -3.0840 H   0  0  0  0  0  0  0  0  0  0  0  0
    0.6938    0.0978   -2.4648 H   0  0  0  0  0  0  0  0  0  0  0  0
    3.8172    3.0393   -0.0791 H   0  0  0  0  0  0  0  0  0  0  0  0
    5.3115    4.1735    2.4970 H   0  0  0  0  0  0  0  0  0  0  0  0
    5.6384    2.4338    2.7473 H   0  0  0  0  0  0  0  0  0  0  0  0
    5.6708    3.1115    1.1111 H   0  0  0  0  0  0  0  0  0  0  0  0
  1  2  2  0
  2  3  1  0
  3  4  1  0
  4  5  1  0
  5  6  1  0
  6  7  1  0
  7  8  1  0
  8  9  1  0
  9 10  2  3
 10 11  1  0
 11 12  1  0
 12 13  1  0
 13 14  1  0
 14 15  1  0
 15 16  1  0
 16 17  2  0
 16 18  1  0
 18 19  1  0
 19 20  1  0
 20 21  1  0
 21 22  2  0
 22 23  1  0
 23 24  2  0
 24 25  1  0
 25 26  2  0
 19 27  1  0
 27 28  2  0
 27 29  1  0
 29 30  1  0
 30 31  1  0
 31 32  1  0
 30 33  1  0
 33 34  2  0
 15 35  1  0
 35 36  1  0
 36 37  1  0
 36 38  2  0
 33  2  1  0
 26 21  1  0
  3 39  1  0
  4 40  1  0
  4 41  1  0
  5 42  1  0
  5 43  1  0
  6 44  1  0
  6 45  1  0
  7 46  1  0
  7 47  1  0
  8 48  1  0
  8 49  1  0
  9 50  1  0
 10 51  1  0
 11 52  1  0
 11 53  1  0
 12 54  1  0
 12 55  1  0
 13 56  1  0
 13 57  1  0
 14 58  1  0
 14 59  1  0
 15 60  1  1
 18 61  1  0
 19 62  1  1
 20 63  1  0
 20 64  1  0
 22 65  1  0
 23 66  1  0
 24 67  1  0
 25 68  1  0
 26 69  1  0
 29 70  1  0
 30 71  1  1
 31 72  1  0
 31 73  1  0
 32 74  1  0
 35 75  1  0
 37 76  1  0
 37 77  1  0
 37 78  1  0
M  END
$$$$
