
     RDKit          3D

 62 64  0  0  0  0  0  0  0  0999 V2000
    2.0632   -2.6666    1.5785 O   0  0  0  0  0  0  0  0  0  0  0  0
    1.3166   -2.9622    0.6506 C   0  0  0  0  0  0  0  0  0  0  0  0
    1.0778   -2.1371   -0.4379 N   0  0  0  0  0  0  0  0  0  0  0  0
    1.2524   -0.6915   -0.2943 C   0  0  1  0  0  0  0  0  0  0  0  0
    1.6479   -0.0009   -1.6004 C   0  0  0  0  0  0  0  0  0  0  0  0
    3.2939   -0.4548   -2.2605 S   0  0  0  0  0  0  0  0  0  0  0  0
    4.3857    0.0532   -0.8998 C   0  0  0  0  0  0  0  0  0  0  0  0
    4.2072    1.4973   -0.5487 C   0  0  0  0  0  0  0  0  0  0  0  0
    5.4088    2.3466   -0.2129 C   0  0  0  0  0  0  0  0  0  0  0  0
    4.6483    2.5961   -1.4845 C   0  0  0  0  0  0  0  0  0  0  0  0
   -0.0827   -0.1782    0.3044 C   0  0  0  0  0  0  0  0  0  0  0  0
   -0.3528   -0.3648    1.4924 O   0  0  0  0  0  0  0  0  0  0  0  0
   -1.0449    0.3080   -0.5670 N   0  0  0  0  0  0  0  0  0  0  0  0
   -2.3146    0.8518   -0.0305 C   0  0  2  0  0  0  0  0  0  0  0  0
   -2.1385    2.0599    0.9061 C   0  0  0  0  0  0  0  0  0  0  0  0
   -1.2416    3.1240    0.3089 C   0  0  0  0  0  0  0  0  0  0  0  0
   -1.6934    3.9391   -0.7387 C   0  0  0  0  0  0  0  0  0  0  0  0
   -0.8385    4.8756   -1.3252 C   0  0  0  0  0  0  0  0  0  0  0  0
    0.4682    4.9952   -0.8627 C   0  0  0  0  0  0  0  0  0  0  0  0
    1.3385    5.8885   -1.4125 O   0  0  0  0  0  0  0  0  0  0  0  0
    0.9298    4.2033    0.1808 C   0  0  0  0  0  0  0  0  0  0  0  0
    0.0754    3.2721    0.7702 C   0  0  0  0  0  0  0  0  0  0  0  0
   -3.1206   -0.2889    0.6332 C   0  0  0  0  0  0  0  0  0  0  0  0
   -3.7868   -0.1648    1.6551 O   0  0  0  0  0  0  0  0  0  0  0  0
   -3.1164   -1.4559   -0.1148 N   0  0  0  0  0  0  0  0  0  0  0  0
   -3.0616   -2.7524    0.5733 C   0  0  1  0  0  0  0  0  0  0  0  0
   -4.2289   -3.6387    0.1770 C   0  0  0  0  0  0  0  0  0  0  0  0
   -4.1996   -4.9679    0.8723 C   0  0  0  0  0  0  0  0  0  0  0  0
   -4.5777   -6.0250    0.3946 O   0  0  0  0  0  0  0  0  0  0  0  0
   -3.7744   -4.9170    2.1463 O   0  0  0  0  0  0  0  0  0  0  0  0
   -1.7362   -3.3521    0.0634 C   0  0  0  0  0  0  0  0  0  0  0  0
   -1.4074   -3.2596   -1.1239 O   0  0  0  0  0  0  0  0  0  0  0  0
   -0.9029   -3.9055    1.0050 N   0  0  0  0  0  0  0  0  0  0  0  0
    0.4730   -4.2436    0.6485 C   0  0  0  0  0  0  0  0  0  0  0  0
    0.3262   -2.4466   -1.0552 H   0  0  0  0  0  0  0  0  0  0  0  0
    2.0054   -0.4833    0.4735 H   0  0  0  0  0  0  0  0  0  0  0  0
    1.6005    1.0883   -1.4982 H   0  0  0  0  0  0  0  0  0  0  0  0
    0.9372   -0.2677   -2.3914 H   0  0  0  0  0  0  0  0  0  0  0  0
    5.4130   -0.1398   -1.2280 H   0  0  0  0  0  0  0  0  0  0  0  0
    4.2136   -0.5809   -0.0250 H   0  0  0  0  0  0  0  0  0  0  0  0
    3.3247    1.6674    0.0576 H   0  0  0  0  0  0  0  0  0  0  0  0
    5.3108    3.0730    0.5864 H   0  0  0  0  0  0  0  0  0  0  0  0
    6.3993    1.9130   -0.2938 H   0  0  0  0  0  0  0  0  0  0  0  0
    4.0327    3.4872   -1.5448 H   0  0  0  0  0  0  0  0  0  0  0  0
    5.1233    2.3244   -2.4208 H   0  0  0  0  0  0  0  0  0  0  0  0
   -0.7260    0.7496   -1.4191 H   0  0  0  0  0  0  0  0  0  0  0  0
   -2.8906    1.1623   -0.9123 H   0  0  0  0  0  0  0  0  0  0  0  0
   -1.7416    1.7472    1.8798 H   0  0  0  0  0  0  0  0  0  0  0  0
   -3.1180    2.5042    1.1271 H   0  0  0  0  0  0  0  0  0  0  0  0
   -2.7147    3.8520   -1.1036 H   0  0  0  0  0  0  0  0  0  0  0  0
   -1.2068    5.4978   -2.1350 H   0  0  0  0  0  0  0  0  0  0  0  0
    0.8656    6.4184   -2.0750 H   0  0  0  0  0  0  0  0  0  0  0  0
    1.9497    4.3149    0.5384 H   0  0  0  0  0  0  0  0  0  0  0  0
    0.4441    2.6595    1.5917 H   0  0  0  0  0  0  0  0  0  0  0  0
   -2.5392   -1.4159   -0.9522 H   0  0  0  0  0  0  0  0  0  0  0  0
   -3.0062   -2.5888    1.6548 H   0  0  0  0  0  0  0  0  0  0  0  0
   -4.2144   -3.8271   -0.9036 H   0  0  0  0  0  0  0  0  0  0  0  0
   -5.1812   -3.1526    0.4164 H   0  0  0  0  0  0  0  0  0  0  0  0
   -3.8847   -5.8374    2.4712 H   0  0  0  0  0  0  0  0  0  0  0  0
   -1.0632   -3.6467    1.9746 H   0  0  0  0  0  0  0  0  0  0  0  0
    0.8618   -4.9367    1.3996 H   0  0  0  0  0  0  0  0  0  0  0  0
    0.5112   -4.7188   -0.3367 H   0  0  0  0  0  0  0  0  0  0  0  0
  1  2  2  0
  2  3  1  0
  3  4  1  0
  4  5  1  0
  5  6  1  0
  6  7  1  0
  7  8  1  0
  8  9  1  0
  9 10  1  0
  4 11  1  0
 11 12  2  0
 11 13  1  0
 13 14  1  0
 14 15  1  0
 15 16  1  0
 16 17  1  0
 17 18  2  0
 18 19  1  0
 19 20  1  0
 19 21  2  0
 21 22  1  0
 14 23  1  0
 23 24  2  0
 23 25  1  0
 25 26  1  0
 26 27  1  0
 27 28  1  0
 28 29  2  0
 28 30  1  0
 26 31  1  0
 31 32  2  0
 31 33  1  0
 33 34  1  0
 34  2  1  0
 10  8  1  0
 22 16  2  0
  3 35  1  0
  4 36  1  1
  5 37  1  0
  5 38  1  0
  7 39  1  0
  7 40  1  0
  8 41  1  0
  9 42  1  0
  9 43  1  0
 10 44  1  0
 10 45  1  0
 13 46  1  0
 14 47  1  6
 15 48  1  0
 15 49  1  0
 17 50  1  0
 18 51  1  0
 20 52  1  0
 21 53  1  0
 22 54  1  0
 25 55  1  0
 26 56  1  1
 27 57  1  0
 27 58  1  0
 30 59  1  0
 33 60  1  0
 34 61  1  0
 34 62  1  0
M  END
$$$$
