
     RDKit          3D

 67 70  0  0  0  0  0  0  0  0999 V2000
   -2.1895   -2.7052   -1.8949 O   0  0  0  0  0  0  0  0  0  0  0  0
   -1.3204   -2.0946   -1.2680 C   0  0  0  0  0  0  0  0  0  0  0  0
    0.1762   -2.3555   -1.5563 C   0  0  2  0  0  0  0  0  0  0  0  0
    0.7937   -3.5873   -0.9147 C   0  0  0  0  0  0  0  0  0  0  0  0
    2.2927   -3.4304   -1.2351 C   0  0  0  0  0  0  0  0  0  0  0  0
    2.4425   -2.0223   -1.8365 C   0  0  0  0  0  0  0  0  0  0  0  0
    1.2290   -1.3341   -1.4268 N   0  0  0  0  0  0  0  0  0  0  0  0
    1.3742   -0.6196   -0.2386 C   0  0  0  0  0  0  0  0  0  0  0  0
    0.7552   -0.9084    0.7920 O   0  0  0  0  0  0  0  0  0  0  0  0
    2.1201    0.7294   -0.3476 C   0  0  2  0  0  0  0  0  0  0  0  0
    3.1931    0.8749    0.7355 C   0  0  0  0  0  0  0  0  0  0  0  0
    4.4120    0.0198    0.5009 C   0  0  0  0  0  0  0  0  0  0  0  0
    4.5893   -1.1754    1.2114 C   0  0  0  0  0  0  0  0  0  0  0  0
    5.7058   -1.9779    0.9740 C   0  0  0  0  0  0  0  0  0  0  0  0
    6.6537   -1.5934    0.0275 C   0  0  0  0  0  0  0  0  0  0  0  0
    6.4880   -0.4048   -0.6813 C   0  0  0  0  0  0  0  0  0  0  0  0
    5.3726    0.3999   -0.4463 C   0  0  0  0  0  0  0  0  0  0  0  0
    1.0196    1.6579   -0.0557 N   0  0  0  0  0  0  0  0  0  0  0  0
    0.4896    2.5264   -0.9859 C   0  0  0  0  0  0  0  0  0  0  0  0
    1.1498    2.9810   -1.9144 O   0  0  0  0  0  0  0  0  0  0  0  0
   -0.9468    3.0037   -0.6399 C   0  0  2  0  0  0  0  0  0  0  0  0
   -0.9514    4.0842    0.4383 C   0  0  0  0  0  0  0  0  0  0  0  0
   -1.0716    3.3112    1.7467 C   0  0  0  0  0  0  0  0  0  0  0  0
   -1.9238    2.1014    1.3825 C   0  0  0  0  0  0  0  0  0  0  0  0
   -1.7070    1.8859   -0.0391 N   0  0  0  0  0  0  0  0  0  0  0  0
   -2.2994    0.9604   -0.8791 C   0  0  0  0  0  0  0  0  0  0  0  0
   -2.2246    1.1306   -2.1036 O   0  0  0  0  0  0  0  0  0  0  0  0
   -2.8443   -0.4013   -0.3589 C   0  0  2  0  0  0  0  0  0  0  0  0
   -3.7420   -0.4895    0.8759 C   0  0  0  0  0  0  0  0  0  0  0  0
   -5.2304   -0.1798    0.5991 C   0  0  0  0  0  0  0  0  0  0  0  0
   -5.4772    1.2326    0.0725 C   0  0  0  0  0  0  0  0  0  0  0  0
   -6.0504   -0.4038    1.8733 C   0  0  0  0  0  0  0  0  0  0  0  0
   -1.6498   -1.2459   -0.2364 N   0  0  0  0  0  0  0  0  0  0  0  0
    0.1528   -2.5389   -2.6447 H   0  0  0  0  0  0  0  0  0  0  0  0
    0.6335   -3.5967    0.1695 H   0  0  0  0  0  0  0  0  0  0  0  0
    0.3816   -4.5173   -1.3185 H   0  0  0  0  0  0  0  0  0  0  0  0
    2.6450   -4.1940   -1.9359 H   0  0  0  0  0  0  0  0  0  0  0  0
    2.8796   -3.5274   -0.3151 H   0  0  0  0  0  0  0  0  0  0  0  0
    2.4490   -2.0724   -2.9316 H   0  0  0  0  0  0  0  0  0  0  0  0
    3.3562   -1.5281   -1.5096 H   0  0  0  0  0  0  0  0  0  0  0  0
    2.5019    0.8946   -1.3597 H   0  0  0  0  0  0  0  0  0  0  0  0
    2.7754    0.6491    1.7263 H   0  0  0  0  0  0  0  0  0  0  0  0
    3.5147    1.9238    0.7956 H   0  0  0  0  0  0  0  0  0  0  0  0
    3.8581   -1.4915    1.9533 H   0  0  0  0  0  0  0  0  0  0  0  0
    5.8384   -2.9024    1.5304 H   0  0  0  0  0  0  0  0  0  0  0  0
    7.5252   -2.2171   -0.1541 H   0  0  0  0  0  0  0  0  0  0  0  0
    7.2302   -0.1023   -1.4158 H   0  0  0  0  0  0  0  0  0  0  0  0
    5.2583    1.3259   -1.0072 H   0  0  0  0  0  0  0  0  0  0  0  0
    0.3472    1.2934    0.6090 H   0  0  0  0  0  0  0  0  0  0  0  0
   -1.4237    3.3484   -1.5637 H   0  0  0  0  0  0  0  0  0  0  0  0
   -0.0662    4.7268    0.4172 H   0  0  0  0  0  0  0  0  0  0  0  0
   -1.8374    4.7192    0.3158 H   0  0  0  0  0  0  0  0  0  0  0  0
   -0.0809    2.9919    2.0894 H   0  0  0  0  0  0  0  0  0  0  0  0
   -1.5183    3.9064    2.5486 H   0  0  0  0  0  0  0  0  0  0  0  0
   -2.9830    2.3149    1.5443 H   0  0  0  0  0  0  0  0  0  0  0  0
   -1.6237    1.2187    1.9525 H   0  0  0  0  0  0  0  0  0  0  0  0
   -3.4395   -0.7923   -1.1957 H   0  0  0  0  0  0  0  0  0  0  0  0
   -3.6963   -1.5233    1.2483 H   0  0  0  0  0  0  0  0  0  0  0  0
   -3.3882    0.1183    1.7064 H   0  0  0  0  0  0  0  0  0  0  0  0
   -5.5947   -0.8887   -0.1559 H   0  0  0  0  0  0  0  0  0  0  0  0
   -5.1168    1.9908    0.7736 H   0  0  0  0  0  0  0  0  0  0  0  0
   -6.5489    1.4045   -0.0780 H   0  0  0  0  0  0  0  0  0  0  0  0
   -4.9907    1.3920   -0.8933 H   0  0  0  0  0  0  0  0  0  0  0  0
   -5.7402    0.2806    2.6704 H   0  0  0  0  0  0  0  0  0  0  0  0
   -7.1170   -0.2424    1.6838 H   0  0  0  0  0  0  0  0  0  0  0  0
   -5.9297   -1.4287    2.2397 H   0  0  0  0  0  0  0  0  0  0  0  0
   -0.8805   -0.9059    0.3342 H   0  0  0  0  0  0  0  0  0  0  0  0
  1  2  2  0
  2  3  1  0
  3  4  1  0
  4  5  1  0
  5  6  1  0
  6  7  1  0
  7  8  1  0
  8  9  2  0
  8 10  1  0
 10 11  1  0
 11 12  1  0
 12 13  2  0
 13 14  1  0
 14 15  2  0
 15 16  1  0
 16 17  2  0
 10 18  1  0
 18 19  1  0
 19 20  2  0
 19 21  1  0
 21 22  1  0
 22 23  1  0
 23 24  1  0
 24 25  1  0
 25 26  1  0
 26 27  2  0
 26 28  1  0
 28 29  1  0
 29 30  1  0
 30 31  1  0
 30 32  1  0
 28 33  1  0
 33  2  1  0
  7  3  1  0
 17 12  1  0
 25 21  1  0
  3 34  1  6
  4 35  1  0
  4 36  1  0
  5 37  1  0
  5 38  1  0
  6 39  1  0
  6 40  1  0
 10 41  1  6
 11 42  1  0
 11 43  1  0
 13 44  1  0
 14 45  1  0
 15 46  1  0
 16 47  1  0
 17 48  1  0
 18 49  1  0
 21 50  1  6
 22 51  1  0
 22 52  1  0
 23 53  1  0
 23 54  1  0
 24 55  1  0
 24 56  1  0
 28 57  1  6
 29 58  1  0
 29 59  1  0
 30 60  1  0
 31 61  1  0
 31 62  1  0
 31 63  1  0
 32 64  1  0
 32 65  1  0
 32 66  1  0
 33 67  1  0
M  END
$$$$
