
     RDKit          3D

 61 62  0  0  0  0  0  0  0  0999 V2000
   -0.5191   -0.3581    2.2982 O   0  0  0  0  0  0  0  0  0  0  0  0
   -0.0587   -1.2875    1.6405 C   0  0  0  0  0  0  0  0  0  0  0  0
    1.0927   -1.1244    0.9125 N   0  0  0  0  0  0  0  0  0  0  0  0
    1.8908    0.1093    0.9393 C   0  0  1  0  0  0  0  0  0  0  0  0
    3.3810   -0.1713    0.6443 C   0  0  0  0  0  0  0  0  0  0  0  0
    3.6437   -1.1581   -0.4756 C   0  0  0  0  0  0  0  0  0  0  0  0
    3.8685   -2.5126   -0.1830 C   0  0  0  0  0  0  0  0  0  0  0  0
    4.0795   -3.4356   -1.2082 C   0  0  0  0  0  0  0  0  0  0  0  0
    4.0709   -3.0153   -2.5361 C   0  0  0  0  0  0  0  0  0  0  0  0
    3.8569   -1.6722   -2.8383 C   0  0  0  0  0  0  0  0  0  0  0  0
    3.6463   -0.7475   -1.8140 C   0  0  0  0  0  0  0  0  0  0  0  0
    1.3010    1.2120    0.0233 C   0  0  0  0  0  0  0  0  0  0  0  0
    1.9527    1.8049   -0.8316 O   0  0  0  0  0  0  0  0  0  0  0  0
   -0.0050    1.5554    0.3144 N   0  0  0  0  0  0  0  0  0  0  0  0
   -0.6529    2.7410   -0.2686 C   0  0  2  0  0  0  0  0  0  0  0  0
   -0.5527    3.9925    0.6436 C   0  0  0  0  0  0  0  0  0  0  0  0
    0.8054    4.1423    1.3398 C   0  0  0  0  0  0  0  0  0  0  0  0
   -0.8235    5.2752   -0.1568 C   0  0  0  0  0  0  0  0  0  0  0  0
   -2.1266    2.3591   -0.5626 C   0  0  0  0  0  0  0  0  0  0  0  0
   -3.0734    3.1317   -0.4575 O   0  0  0  0  0  0  0  0  0  0  0  0
   -2.2731    1.0869   -1.0828 N   0  0  0  0  0  0  0  0  0  0  0  0
   -3.5926    0.4530   -1.1310 C   0  0  1  0  0  0  0  0  0  0  0  0
   -3.6382   -0.6088   -2.2348 C   0  0  0  0  0  0  0  0  0  0  0  0
   -2.5472   -1.5394   -2.0994 O   0  0  0  0  0  0  0  0  0  0  0  0
   -3.8592   -0.2014    0.2376 C   0  0  0  0  0  0  0  0  0  0  0  0
   -4.8809   -0.0067    0.8882 O   0  0  0  0  0  0  0  0  0  0  0  0
   -2.8705   -1.0825    0.6346 N   0  0  0  0  0  0  0  0  0  0  0  0
   -2.9722   -1.7897    1.8990 C   0  0  0  0  0  0  0  0  0  0  0  0
   -1.8634   -2.8280    2.1190 C   0  0  0  0  0  0  0  0  0  0  0  0
   -2.0740   -3.8231    2.8192 O   0  0  0  0  0  0  0  0  0  0  0  0
   -0.6103   -2.5624    1.5650 N   0  0  0  0  0  0  0  0  0  0  0  0
    0.2834   -3.7052    1.4316 C   0  0  0  0  0  0  0  0  0  0  0  0
    1.1421   -1.6406    0.0429 H   0  0  0  0  0  0  0  0  0  0  0  0
    1.8350    0.5235    1.9557 H   0  0  0  0  0  0  0  0  0  0  0  0
    3.9245    0.7603    0.4419 H   0  0  0  0  0  0  0  0  0  0  0  0
    3.8382   -0.5752    1.5584 H   0  0  0  0  0  0  0  0  0  0  0  0
    3.8850   -2.8569    0.8492 H   0  0  0  0  0  0  0  0  0  0  0  0
    4.2607   -4.4809   -0.9712 H   0  0  0  0  0  0  0  0  0  0  0  0
    4.2433   -3.7312   -3.3357 H   0  0  0  0  0  0  0  0  0  0  0  0
    3.8623   -1.3394   -3.8734 H   0  0  0  0  0  0  0  0  0  0  0  0
    3.4944    0.2987   -2.0740 H   0  0  0  0  0  0  0  0  0  0  0  0
   -0.4215    1.1596    1.1613 H   0  0  0  0  0  0  0  0  0  0  0  0
   -0.1801    2.9503   -1.2362 H   0  0  0  0  0  0  0  0  0  0  0  0
   -1.3137    3.9184    1.4319 H   0  0  0  0  0  0  0  0  0  0  0  0
    0.8347    5.0607    1.9367 H   0  0  0  0  0  0  0  0  0  0  0  0
    0.9968    3.3118    2.0265 H   0  0  0  0  0  0  0  0  0  0  0  0
    1.6232    4.1913    0.6133 H   0  0  0  0  0  0  0  0  0  0  0  0
   -0.7910    6.1533    0.4974 H   0  0  0  0  0  0  0  0  0  0  0  0
   -1.8075    5.2625   -0.6327 H   0  0  0  0  0  0  0  0  0  0  0  0
   -0.0728    5.4146   -0.9425 H   0  0  0  0  0  0  0  0  0  0  0  0
   -1.4757    0.4736   -0.9586 H   0  0  0  0  0  0  0  0  0  0  0  0
   -4.3646    1.2107   -1.3032 H   0  0  0  0  0  0  0  0  0  0  0  0
   -4.5739   -1.1759   -2.1998 H   0  0  0  0  0  0  0  0  0  0  0  0
   -3.5439   -0.1331   -3.2168 H   0  0  0  0  0  0  0  0  0  0  0  0
   -2.5682   -2.0906   -2.9050 H   0  0  0  0  0  0  0  0  0  0  0  0
   -2.3636   -1.5212   -0.1325 H   0  0  0  0  0  0  0  0  0  0  0  0
   -2.9788   -1.0663    2.7199 H   0  0  0  0  0  0  0  0  0  0  0  0
   -3.9312   -2.3203    1.8994 H   0  0  0  0  0  0  0  0  0  0  0  0
   -0.2563   -4.6545    1.4988 H   0  0  0  0  0  0  0  0  0  0  0  0
    1.0418   -3.6635    2.2203 H   0  0  0  0  0  0  0  0  0  0  0  0
    0.7816   -3.6732    0.4584 H   0  0  0  0  0  0  0  0  0  0  0  0
  1  2  2  0
  2  3  1  0
  3  4  1  0
  4  5  1  0
  5  6  1  0
  6  7  2  0
  7  8  1  0
  8  9  2  0
  9 10  1  0
 10 11  2  0
  4 12  1  0
 12 13  2  0
 12 14  1  0
 14 15  1  0
 15 16  1  0
 16 17  1  0
 16 18  1  0
 15 19  1  0
 19 20  2  0
 19 21  1  0
 21 22  1  0
 22 23  1  0
 23 24  1  0
 22 25  1  0
 25 26  2  0
 25 27  1  0
 27 28  1  0
 28 29  1  0
 29 30  2  0
 29 31  1  0
 31 32  1  0
 31  2  1  0
 11  6  1  0
  3 33  1  0
  4 34  1  1
  5 35  1  0
  5 36  1  0
  7 37  1  0
  8 38  1  0
  9 39  1  0
 10 40  1  0
 11 41  1  0
 14 42  1  0
 15 43  1  6
 16 44  1  0
 17 45  1  0
 17 46  1  0
 17 47  1  0
 18 48  1  0
 18 49  1  0
 18 50  1  0
 21 51  1  0
 22 52  1  6
 23 53  1  0
 23 54  1  0
 24 55  1  0
 27 56  1  0
 28 57  1  0
 28 58  1  0
 32 59  1  0
 32 60  1  0
 32 61  1  0
M  END
$$$$
