
     RDKit          3D

 17 18  0  0  0  0  0  0  0  0999 V2000
   -5.7114    0.7088   -0.7559 N   0  0  0  0  0  0  0  0  0  0  0  0
   -5.0706    0.3563    0.5070 C   0  0  0  0  0  0  0  0  0  0  0  0
   -3.5988    0.7772    0.5738 C   0  0  0  0  0  0  0  0  0  0  0  0
   -2.6948   -0.0248   -0.3735 C   0  0  0  0  0  0  0  0  0  0  0  0
   -3.0301    0.2596   -1.7333 O   0  0  0  0  0  0  0  0  0  0  0  0
   -1.2314    0.2834   -0.1530 C   0  0  0  0  0  0  0  0  0  0  0  0
   -0.6849    1.5184   -0.5172 C   0  0  0  0  0  0  0  0  0  0  0  0
    0.6622    1.7455   -0.2862 C   0  0  0  0  0  0  0  0  0  0  0  0
    1.4916    0.8405    0.2749 N   0  0  0  0  0  0  0  0  0  0  0  0
    0.9492   -0.3408    0.6267 C   0  0  0  0  0  0  0  0  0  0  0  0
    1.7312   -1.3197    1.2007 O   0  0  0  0  0  0  0  0  0  0  0  0
    3.0978   -0.9616    1.4362 C   0  0  0  0  0  0  0  0  0  0  0  0
    3.9525   -1.3788    0.2574 C   0  0  0  0  0  0  0  0  0  0  0  0
    4.1528   -0.3874   -0.8979 C   0  0  0  0  0  0  0  0  0  0  0  0
    5.5885   -0.6204   -0.8743 O   0  0  0  0  0  0  0  0  0  0  0  0
    5.4647   -1.2073    0.4469 C   0  0  0  0  0  0  0  0  0  0  0  0
   -0.3861   -0.6629    0.4342 C   0  0  0  0  0  0  0  0  0  0  0  0
  1  2  1  0
  2  3  1  0
  3  4  1  0
  4  5  1  0
  4  6  1  0
  6  7  1  0
  7  8  2  0
  8  9  1  0
  9 10  2  0
 10 11  1  0
 11 12  1  0
 12 13  1  0
 13 14  1  0
 14 15  1  0
 15 16  1  0
 10 17  1  0
 17  6  2  0
 16 13  1  0
M  END
$$$$
