
     RDKit          3D

 53 56  0  0  0  0  0  0  0  0999 V2000
   16.9133   -2.9632   13.4927 O   0  0  0  0  0  0  0  0  0  0  0  0
   16.4079   -1.8854   13.7786 C   0  0  0  0  0  0  0  0  0  0  0  0
   17.0434   -0.7104   14.1215 N   0  0  0  0  0  0  0  0  0  0  0  0
   18.4058   -0.5605   14.3005 C   0  0  0  0  0  0  0  0  0  0  0  0
   19.2984   -1.5499   14.2636 N   0  0  0  0  0  0  0  0  0  0  0  0
   20.4747   -0.9533   14.4894 N   0  0  0  0  0  0  0  0  0  0  0  0
   20.3908    0.3961   14.6916 C   0  0  0  0  0  0  0  0  0  0  0  0
   21.3678    1.3594   14.9607 C   0  0  0  0  0  0  0  0  0  0  0  0
   20.9335    2.6799   15.1140 C   0  0  0  0  0  0  0  0  0  0  0  0
   19.5836    3.0132   15.0011 C   0  0  0  0  0  0  0  0  0  0  0  0
   18.6219    2.0309   14.7312 C   0  0  0  0  0  0  0  0  0  0  0  0
   19.0374    0.6928   14.5739 C   0  0  0  0  0  0  0  0  0  0  0  0
   14.9224   -1.7773   13.7148 C   0  0  0  0  0  0  0  0  0  0  0  0
   14.1997   -1.0088   14.6363 C   0  0  0  0  0  0  0  0  0  0  0  0
   12.8042   -0.9297   14.5462 C   0  0  0  0  0  0  0  0  0  0  0  0
   12.1235   -1.6232   13.5435 C   0  0  0  0  0  0  0  0  0  0  0  0
   10.7702   -1.6309   13.3477 O   0  0  0  0  0  0  0  0  0  0  0  0
    9.9764   -0.8524   14.2492 C   0  0  0  0  0  0  0  0  0  0  0  0
    8.4990   -1.0389   13.8669 C   0  0  0  0  0  0  0  0  0  0  0  0
    7.5807   -0.2816   14.7301 N   0  0  0  0  0  0  0  0  0  0  0  0
    7.5769    1.1705   14.4448 C   0  0  0  0  0  0  0  0  0  0  0  0
    6.3053    1.6844   13.7304 C   0  0  0  0  0  0  0  0  0  0  0  0
    5.0697    1.4159   14.4896 N   0  0  0  0  0  0  0  0  0  0  0  0
    3.8998    1.4989   13.6207 C   0  0  0  0  0  0  0  0  0  0  0  0
    5.1408    0.1245   15.2022 C   0  0  0  0  0  0  0  0  0  0  0  0
    6.2153   -0.8424   14.6569 C   0  0  0  0  0  0  0  0  0  0  0  0
   12.8477   -2.4032   12.6377 C   0  0  0  0  0  0  0  0  0  0  0  0
   14.2395   -2.4874   12.7229 C   0  0  0  0  0  0  0  0  0  0  0  0
   16.5038    0.1375   14.1887 H   0  0  0  0  0  0  0  0  0  0  0  0
   21.3071   -1.5307   14.4953 H   0  0  0  0  0  0  0  0  0  0  0  0
   22.4182    1.1014   15.0476 H   0  0  0  0  0  0  0  0  0  0  0  0
   21.6625    3.4605   15.3228 H   0  0  0  0  0  0  0  0  0  0  0  0
   19.2740    4.0491   15.1228 H   0  0  0  0  0  0  0  0  0  0  0  0
   17.5764    2.3083   14.6443 H   0  0  0  0  0  0  0  0  0  0  0  0
   14.7019   -0.4943   15.4514 H   0  0  0  0  0  0  0  0  0  0  0  0
   12.2786   -0.3309   15.2835 H   0  0  0  0  0  0  0  0  0  0  0  0
   10.1259   -1.2017   15.2784 H   0  0  0  0  0  0  0  0  0  0  0  0
   10.2632    0.2017   14.1680 H   0  0  0  0  0  0  0  0  0  0  0  0
    8.2855   -2.1137   13.9507 H   0  0  0  0  0  0  0  0  0  0  0  0
    8.3458   -0.7919   12.8079 H   0  0  0  0  0  0  0  0  0  0  0  0
    7.6680    1.6912   15.4071 H   0  0  0  0  0  0  0  0  0  0  0  0
    8.4519    1.4751   13.8590 H   0  0  0  0  0  0  0  0  0  0  0  0
    6.2626    1.2219   12.7346 H   0  0  0  0  0  0  0  0  0  0  0  0
    6.3963    2.7663   13.5777 H   0  0  0  0  0  0  0  0  0  0  0  0
    3.9010    0.7191   12.8507 H   0  0  0  0  0  0  0  0  0  0  0  0
    2.9790    1.4040   14.2068 H   0  0  0  0  0  0  0  0  0  0  0  0
    3.8564    2.4749   13.1245 H   0  0  0  0  0  0  0  0  0  0  0  0
    5.3719    0.3422   16.2533 H   0  0  0  0  0  0  0  0  0  0  0  0
    4.1678   -0.3826   15.2138 H   0  0  0  0  0  0  0  0  0  0  0  0
    6.1848   -1.7697   15.2413 H   0  0  0  0  0  0  0  0  0  0  0  0
    5.9551   -1.1036   13.6219 H   0  0  0  0  0  0  0  0  0  0  0  0
   12.3239   -2.9570   11.8619 H   0  0  0  0  0  0  0  0  0  0  0  0
   14.7889   -3.1079   12.0175 H   0  0  0  0  0  0  0  0  0  0  0  0
  1  2  2  0
  2  3  1  0
  3  4  1  0
  4  5  2  0
  5  6  1  0
  6  7  1  0
  7  8  2  0
  8  9  1  0
  9 10  2  0
 10 11  1  0
 11 12  2  0
  2 13  1  0
 13 14  1  0
 14 15  2  0
 15 16  1  0
 16 17  1  0
 17 18  1  0
 18 19  1  0
 19 20  1  0
 20 21  1  0
 21 22  1  0
 22 23  1  0
 23 24  1  0
 23 25  1  0
 25 26  1  0
 16 27  2  0
 27 28  1  0
 12  4  1  0
 28 13  2  0
 12  7  1  0
 26 20  1  0
  3 29  1  0
  6 30  1  0
  8 31  1  0
  9 32  1  0
 10 33  1  0
 11 34  1  0
 14 35  1  0
 15 36  1  0
 18 37  1  0
 18 38  1  0
 19 39  1  0
 19 40  1  0
 21 41  1  0
 21 42  1  0
 22 43  1  0
 22 44  1  0
 24 45  1  0
 24 46  1  0
 24 47  1  0
 25 48  1  0
 25 49  1  0
 26 50  1  0
 26 51  1  0
 27 52  1  0
 28 53  1  0
M  END
>  <gene>  (1) 
ABL1

>  <formula>  (1) 
C21H25N5O2

>  <fsp3>  (1) 
0.3333

$$$$
