
     RDKit          3D

 40 43  0  0  0  0  0  0  0  0999 V2000
    5.7471    6.7995    7.3942 O   0  0  0  0  0  0  0  0  0  0  0  0
    5.3791    7.9201    7.0522 C   0  0  0  0  0  0  0  0  0  0  0  0
    6.2184    8.9874    6.7765 N   0  0  0  0  0  0  0  0  0  0  0  0
    7.6285    9.0154    6.8277 C   0  0  0  0  0  0  0  0  0  0  0  0
    8.2533   10.2272    6.5010 C   0  0  0  0  0  0  0  0  0  0  0  0
    9.6458   10.3437    6.5256 C   0  0  0  0  0  0  0  0  0  0  0  0
   10.4288    9.2484    6.8777 C   0  0  0  0  0  0  0  0  0  0  0  0
    9.8180    8.0403    7.2041 C   0  0  0  0  0  0  0  0  0  0  0  0
    8.4240    7.9240    7.1793 C   0  0  0  0  0  0  0  0  0  0  0  0
    3.8776    8.2504    6.8928 C   0  0  0  0  0  0  0  0  0  0  0  0
    3.4536    9.3841    7.8593 C   0  0  0  0  0  0  0  0  0  0  0  0
    1.9538    9.6932    7.7061 C   0  0  0  0  0  0  0  0  0  0  0  0
    1.6710   10.1195    6.2553 C   0  0  0  0  0  0  0  0  0  0  0  0
    2.0556    8.9882    5.2864 C   0  0  0  0  0  0  0  0  0  0  0  0
    1.2394    7.7313    5.6258 C   0  0  0  0  0  0  0  0  0  0  0  0
    1.5233    7.2960    7.0718 C   0  0  0  0  0  0  0  0  0  0  0  0
    1.1381    8.4323    8.0317 C   0  0  0  0  0  0  0  0  0  0  0  0
    3.0233    6.9959    7.2224 C   0  0  0  0  0  0  0  0  0  0  0  0
    3.5555    8.6790    5.4396 C   0  0  0  0  0  0  0  0  0  0  0  0
    5.7814    9.8569    6.5048 H   0  0  0  0  0  0  0  0  0  0  0  0
    7.6673   11.0989    6.2223 H   0  0  0  0  0  0  0  0  0  0  0  0
   10.1175   11.2888    6.2701 H   0  0  0  0  0  0  0  0  0  0  0  0
   11.5119    9.3340    6.8984 H   0  0  0  0  0  0  0  0  0  0  0  0
   10.4236    7.1806    7.4801 H   0  0  0  0  0  0  0  0  0  0  0  0
    7.9936    6.9628    7.4412 H   0  0  0  0  0  0  0  0  0  0  0  0
    4.0262   10.3001    7.6697 H   0  0  0  0  0  0  0  0  0  0  0  0
    3.6735    9.0963    8.8958 H   0  0  0  0  0  0  0  0  0  0  0  0
    1.6723   10.5015    8.3902 H   0  0  0  0  0  0  0  0  0  0  0  0
    0.6085   10.3663    6.1386 H   0  0  0  0  0  0  0  0  0  0  0  0
    2.2369   11.0278    6.0144 H   0  0  0  0  0  0  0  0  0  0  0  0
    1.8463    9.2969    4.2561 H   0  0  0  0  0  0  0  0  0  0  0  0
    0.1688    7.9339    5.4988 H   0  0  0  0  0  0  0  0  0  0  0  0
    1.4943    6.9202    4.9327 H   0  0  0  0  0  0  0  0  0  0  0  0
    0.9409    6.3987    7.3087 H   0  0  0  0  0  0  0  0  0  0  0  0
    0.0658    8.6472    7.9468 H   0  0  0  0  0  0  0  0  0  0  0  0
    1.3202    8.1254    9.0689 H   0  0  0  0  0  0  0  0  0  0  0  0
    3.2991    6.1643    6.5602 H   0  0  0  0  0  0  0  0  0  0  0  0
    3.2281    6.6556    8.2462 H   0  0  0  0  0  0  0  0  0  0  0  0
    4.1322    9.5665    5.1521 H   0  0  0  0  0  0  0  0  0  0  0  0
    3.8484    7.8854    4.7398 H   0  0  0  0  0  0  0  0  0  0  0  0
  1  2  2  0
  2  3  1  0
  3  4  1  0
  4  5  2  0
  5  6  1  0
  6  7  2  0
  7  8  1  0
  8  9  2  0
  2 10  1  0
 10 11  1  0
 11 12  1  0
 12 13  1  0
 13 14  1  0
 14 15  1  0
 15 16  1  0
 16 17  1  0
 16 18  1  0
 14 19  1  0
  9  4  1  0
 18 10  1  0
 19 10  1  0
 17 12  1  0
  3 20  1  0
  5 21  1  0
  6 22  1  0
  7 23  1  0
  8 24  1  0
  9 25  1  0
 11 26  1  0
 11 27  1  0
 12 28  1  0
 13 29  1  0
 13 30  1  0
 14 31  1  0
 15 32  1  0
 15 33  1  0
 16 34  1  0
 17 35  1  0
 17 36  1  0
 18 37  1  0
 18 38  1  0
 19 39  1  0
 19 40  1  0
M  END
>  <gene>  (1) 
ALK5

>  <candidate_id>  (1) 
alk5_bicyclo

$$$$
