
     RDKit          3D

 35 37  0  0  0  0  0  0  0  0999 V2000
  -13.1241    1.0222   -6.7968 O   0  0  0  0  0  0  0  0  0  0  0  0
  -12.8138    1.5511   -7.8514 C   0  0  0  0  0  0  0  0  0  0  0  0
  -11.5178    1.9963   -8.1515 N   0  0  0  0  0  0  0  0  0  0  0  0
  -10.2483    1.8339   -7.0793 S   0  0  0  0  0  0  0  0  0  0  0  0
  -10.4386    2.7520   -5.9790 O   0  0  0  0  0  0  0  0  0  0  0  0
   -9.9678    0.4285   -6.8893 O   0  0  0  0  0  0  0  0  0  0  0  0
   -8.9239    2.4893   -8.0775 C   0  0  0  0  0  0  0  0  0  0  0  0
   -8.6337    3.8531   -8.0262 C   0  0  0  0  0  0  0  0  0  0  0  0
   -7.6047    4.3635   -8.8185 C   0  0  0  0  0  0  0  0  0  0  0  0
   -6.8582    3.5194   -9.6582 C   0  0  0  0  0  0  0  0  0  0  0  0
   -5.8220    4.0214  -10.4610 C   0  0  0  0  0  0  0  0  0  0  0  0
   -5.0837    3.1719  -11.2866 C   0  0  0  0  0  0  0  0  0  0  0  0
   -5.3699    1.8103  -11.3191 C   0  0  0  0  0  0  0  0  0  0  0  0
   -6.3962    1.2934  -10.5270 C   0  0  0  0  0  0  0  0  0  0  0  0
   -7.1503    2.1339   -9.6932 C   0  0  0  0  0  0  0  0  0  0  0  0
   -8.1850    1.6270   -8.8935 C   0  0  0  0  0  0  0  0  0  0  0  0
  -13.8231    1.7548   -8.9280 C   0  0  0  0  0  0  0  0  0  0  0  0
  -14.9441    0.9128   -8.9457 C   0  0  0  0  0  0  0  0  0  0  0  0
  -15.9095    1.0451   -9.9452 C   0  0  0  0  0  0  0  0  0  0  0  0
  -15.7636    2.0214  -10.9292 C   0  0  0  0  0  0  0  0  0  0  0  0
  -14.6577    2.8708  -10.9129 C   0  0  0  0  0  0  0  0  0  0  0  0
  -13.6876    2.7416   -9.9152 C   0  0  0  0  0  0  0  0  0  0  0  0
  -11.2575    2.2383   -9.0993 H   0  0  0  0  0  0  0  0  0  0  0  0
   -9.1939    4.5198   -7.3736 H   0  0  0  0  0  0  0  0  0  0  0  0
   -7.3821    5.4279   -8.7712 H   0  0  0  0  0  0  0  0  0  0  0  0
   -5.5778    5.0815  -10.4471 H   0  0  0  0  0  0  0  0  0  0  0  0
   -4.2819    3.5738  -11.9010 H   0  0  0  0  0  0  0  0  0  0  0  0
   -4.7916    1.1479  -11.9584 H   0  0  0  0  0  0  0  0  0  0  0  0
   -6.5994    0.2250  -10.5637 H   0  0  0  0  0  0  0  0  0  0  0  0
   -8.4104    0.5617   -8.9033 H   0  0  0  0  0  0  0  0  0  0  0  0
  -15.0682    0.1476   -8.1806 H   0  0  0  0  0  0  0  0  0  0  0  0
  -16.7760    0.3879   -9.9532 H   0  0  0  0  0  0  0  0  0  0  0  0
  -16.5190    2.1263  -11.7049 H   0  0  0  0  0  0  0  0  0  0  0  0
  -14.5583    3.6420  -11.6737 H   0  0  0  0  0  0  0  0  0  0  0  0
  -12.8593    3.4436   -9.9089 H   0  0  0  0  0  0  0  0  0  0  0  0
  1  2  2  0
  2  3  1  0
  3  4  1  0
  4  5  2  0
  4  6  2  0
  4  7  1  0
  7  8  1  0
  8  9  2  0
  9 10  1  0
 10 11  2  0
 11 12  1  0
 12 13  2  0
 13 14  1  0
 14 15  2  0
 15 16  1  0
  2 17  1  0
 17 18  2  0
 18 19  1  0
 19 20  2  0
 20 21  1  0
 21 22  2  0
 16  7  2  0
 22 17  1  0
 15 10  1  0
  3 23  1  0
  8 24  1  0
  9 25  1  0
 11 26  1  0
 12 27  1  0
 13 28  1  0
 14 29  1  0
 16 30  1  0
 18 31  1  0
 19 32  1  0
 20 33  1  0
 21 34  1  0
 22 35  1  0
M  END
>  <formula>  (1) 
C17H13NO3S

$$$$
