
     RDKit          3D

 59 62  0  0  0  0  0  0  0  0999 V2000
   -5.0277    3.7859   -8.9935 O   0  0  0  0  0  0  0  0  0  0  0  0
   -4.2979    3.0771   -9.6664 C   0  0  0  0  0  0  0  0  0  0  0  0
   -4.5042    2.8312  -11.0285 N   0  0  0  0  0  0  0  0  0  0  0  0
   -5.7297    3.4897  -11.9406 S   0  0  0  0  0  0  0  0  0  0  0  0
   -5.5297    2.9568  -13.2748 O   0  0  0  0  0  0  0  0  0  0  0  0
   -5.7947    4.9165  -11.7191 O   0  0  0  0  0  0  0  0  0  0  0  0
   -7.1810    2.7186  -11.2756 C   0  0  0  0  0  0  0  0  0  0  0  0
   -7.5947    1.4816  -11.7762 C   0  0  0  0  0  0  0  0  0  0  0  0
   -8.7466    0.8837  -11.2623 C   0  0  0  0  0  0  0  0  0  0  0  0
   -9.5005    1.5199  -10.2602 C   0  0  0  0  0  0  0  0  0  0  0  0
  -10.6588    0.9248   -9.7319 C   0  0  0  0  0  0  0  0  0  0  0  0
  -11.4077    1.5796   -8.7514 C   0  0  0  0  0  0  0  0  0  0  0  0
  -12.5266    1.0451   -8.1753 O   0  0  0  0  0  0  0  0  0  0  0  0
  -13.5318    0.6015   -9.0957 C   0  0  0  0  0  0  0  0  0  0  0  0
  -14.2808    1.7639   -9.7877 C   0  0  0  0  0  0  0  0  0  0  0  0
  -14.9784    2.7005   -8.8834 N   0  0  0  0  0  0  0  0  0  0  0  0
  -15.9757    2.0215   -8.0285 C   0  0  0  0  0  0  0  0  0  0  0  0
  -17.1281    2.9472   -7.5768 C   0  0  0  0  0  0  0  0  0  0  0  0
  -17.9080    3.5219   -8.6927 N   0  0  0  0  0  0  0  0  0  0  0  0
  -19.1198    2.7579   -8.9626 C   0  0  0  0  0  0  0  0  0  0  0  0
  -17.0902    3.6466   -9.9170 C   0  0  0  0  0  0  0  0  0  0  0  0
  -15.5846    3.8288   -9.6262 C   0  0  0  0  0  0  0  0  0  0  0  0
  -10.9864    2.8119   -8.2573 C   0  0  0  0  0  0  0  0  0  0  0  0
   -9.8358    3.4151   -8.7674 C   0  0  0  0  0  0  0  0  0  0  0  0
   -9.0840    2.7835   -9.7707 C   0  0  0  0  0  0  0  0  0  0  0  0
   -7.9239    3.3769  -10.2905 C   0  0  0  0  0  0  0  0  0  0  0  0
   -3.1151    2.4025   -9.0583 C   0  0  0  0  0  0  0  0  0  0  0  0
   -2.5865    2.9452   -7.8765 C   0  0  0  0  0  0  0  0  0  0  0  0
   -1.4681    2.3679   -7.2713 C   0  0  0  0  0  0  0  0  0  0  0  0
   -0.8721    1.2434   -7.8403 C   0  0  0  0  0  0  0  0  0  0  0  0
   -1.3962    0.6897   -9.0090 C   0  0  0  0  0  0  0  0  0  0  0  0
   -2.5157    1.2642   -9.6186 C   0  0  0  0  0  0  0  0  0  0  0  0
   -3.8383    2.3246  -11.5986 H   0  0  0  0  0  0  0  0  0  0  0  0
   -7.0345    0.9799  -12.5619 H   0  0  0  0  0  0  0  0  0  0  0  0
   -9.0585   -0.0833  -11.6549 H   0  0  0  0  0  0  0  0  0  0  0  0
  -10.9527   -0.0646  -10.0716 H   0  0  0  0  0  0  0  0  0  0  0  0
  -13.1181   -0.0776   -9.8505 H   0  0  0  0  0  0  0  0  0  0  0  0
  -14.2369   -0.0077   -8.5181 H   0  0  0  0  0  0  0  0  0  0  0  0
  -14.9940    1.3359  -10.5048 H   0  0  0  0  0  0  0  0  0  0  0  0
  -13.5462    2.3345  -10.3710 H   0  0  0  0  0  0  0  0  0  0  0  0
  -15.4697    1.6319   -7.1367 H   0  0  0  0  0  0  0  0  0  0  0  0
  -16.4187    1.1633   -8.5538 H   0  0  0  0  0  0  0  0  0  0  0  0
  -17.7762    2.4129   -6.8706 H   0  0  0  0  0  0  0  0  0  0  0  0
  -16.7023    3.7822   -7.0041 H   0  0  0  0  0  0  0  0  0  0  0  0
  -18.9043    1.7206   -9.2337 H   0  0  0  0  0  0  0  0  0  0  0  0
  -19.7739    2.7523   -8.0878 H   0  0  0  0  0  0  0  0  0  0  0  0
  -19.6918    3.2165   -9.7778 H   0  0  0  0  0  0  0  0  0  0  0  0
  -17.4542    4.5055  -10.4942 H   0  0  0  0  0  0  0  0  0  0  0  0
  -17.2023    2.7615  -10.5582 H   0  0  0  0  0  0  0  0  0  0  0  0
  -15.0518    4.0219  -10.5666 H   0  0  0  0  0  0  0  0  0  0  0  0
  -15.4479    4.7380   -9.0226 H   0  0  0  0  0  0  0  0  0  0  0  0
  -11.5634    3.3079   -7.4798 H   0  0  0  0  0  0  0  0  0  0  0  0
   -9.5283    4.3821   -8.3711 H   0  0  0  0  0  0  0  0  0  0  0  0
   -7.5896    4.3450   -9.9151 H   0  0  0  0  0  0  0  0  0  0  0  0
   -3.0418    3.8245   -7.4217 H   0  0  0  0  0  0  0  0  0  0  0  0
   -1.0639    2.7959   -6.3551 H   0  0  0  0  0  0  0  0  0  0  0  0
   -0.0013    0.7935   -7.3672 H   0  0  0  0  0  0  0  0  0  0  0  0
   -0.9362   -0.1969   -9.4413 H   0  0  0  0  0  0  0  0  0  0  0  0
   -2.9155    0.7839  -10.5072 H   0  0  0  0  0  0  0  0  0  0  0  0
  1  2  2  0
  2  3  1  0
  3  4  1  0
  4  5  2  0
  4  6  2  0
  4  7  1  0
  7  8  2  0
  8  9  1  0
  9 10  2  0
 10 11  1  0
 11 12  2  0
 12 13  1  0
 13 14  1  0
 14 15  1  0
 15 16  1  0
 16 17  1  0
 17 18  1  0
 18 19  1  0
 19 20  1  0
 19 21  1  0
 21 22  1  0
 12 23  1  0
 23 24  2  0
 24 25  1  0
 25 26  2  0
  2 27  1  0
 27 28  2  0
 28 29  1  0
 29 30  2  0
 30 31  1  0
 31 32  2  0
 26  7  1  0
 32 27  1  0
 25 10  1  0
 22 16  1  0
  3 33  1  0
  8 34  1  0
  9 35  1  0
 11 36  1  0
 14 37  1  0
 14 38  1  0
 15 39  1  0
 15 40  1  0
 17 41  1  0
 17 42  1  0
 18 43  1  0
 18 44  1  0
 20 45  1  0
 20 46  1  0
 20 47  1  0
 21 48  1  0
 21 49  1  0
 22 50  1  0
 22 51  1  0
 23 52  1  0
 24 53  1  0
 26 54  1  0
 28 55  1  0
 29 56  1  0
 30 57  1  0
 31 58  1  0
 32 59  1  0
M  END
>  <gene>  (1) 
BCL2

>  <formula>  (1) 
C24H27N3O4S

>  <fsp3>  (1) 
0.2917

$$$$
