
     RDKit          3D

 38 40  0  0  0  0  0  0  0  0999 V2000
  -11.1597   -1.0218  -10.7852 O   0  0  0  0  0  0  0  0  0  0  0  0
  -11.0716    0.1025  -10.3202 C   0  0  0  0  0  0  0  0  0  0  0  0
   -9.8555    0.7524  -10.0643 N   0  0  0  0  0  0  0  0  0  0  0  0
   -8.3786    0.0420  -10.3852 S   0  0  0  0  0  0  0  0  0  0  0  0
   -8.1487   -1.0200   -9.4317 O   0  0  0  0  0  0  0  0  0  0  0  0
   -8.2463   -0.1431  -11.8130 O   0  0  0  0  0  0  0  0  0  0  0  0
   -7.2941    1.3853   -9.9386 C   0  0  0  0  0  0  0  0  0  0  0  0
   -6.8939    2.3042  -10.9116 C   0  0  0  0  0  0  0  0  0  0  0  0
   -6.0529    3.3588  -10.5534 C   0  0  0  0  0  0  0  0  0  0  0  0
   -5.5968    3.4879   -9.2340 C   0  0  0  0  0  0  0  0  0  0  0  0
   -4.7123    4.6379   -8.8480 C   0  0  0  0  0  0  0  0  0  0  0  0
   -6.0090    2.5582   -8.2690 C   0  0  0  0  0  0  0  0  0  0  0  0
   -6.8501    1.5010   -8.6191 C   0  0  0  0  0  0  0  0  0  0  0  0
  -12.2933    0.8887   -9.9947 C   0  0  0  0  0  0  0  0  0  0  0  0
  -13.4691    0.5940  -10.6931 C   0  0  0  0  0  0  0  0  0  0  0  0
  -14.6361    1.3198  -10.4454 C   0  0  0  0  0  0  0  0  0  0  0  0
  -14.6498    2.3482   -9.4916 C   0  0  0  0  0  0  0  0  0  0  0  0
  -15.8155    3.0858   -9.2324 C   0  0  0  0  0  0  0  0  0  0  0  0
  -15.8188    4.1007   -8.2747 C   0  0  0  0  0  0  0  0  0  0  0  0
  -14.6583    4.3895   -7.5632 C   0  0  0  0  0  0  0  0  0  0  0  0
  -13.4904    3.6656   -7.8089 C   0  0  0  0  0  0  0  0  0  0  0  0
  -13.4681    2.6435   -8.7720 C   0  0  0  0  0  0  0  0  0  0  0  0
  -12.2986    1.9072   -9.0307 C   0  0  0  0  0  0  0  0  0  0  0  0
   -9.8248    1.7479   -9.8819 H   0  0  0  0  0  0  0  0  0  0  0  0
   -7.2243    2.2051  -11.9437 H   0  0  0  0  0  0  0  0  0  0  0  0
   -5.7447    4.0752  -11.3128 H   0  0  0  0  0  0  0  0  0  0  0  0
   -4.0785    4.9421   -9.6876 H   0  0  0  0  0  0  0  0  0  0  0  0
   -5.3232    5.4912   -8.5379 H   0  0  0  0  0  0  0  0  0  0  0  0
   -4.0473    4.3597   -8.0237 H   0  0  0  0  0  0  0  0  0  0  0  0
   -5.6664    2.6474   -7.2397 H   0  0  0  0  0  0  0  0  0  0  0  0
   -7.1473    0.7751   -7.8648 H   0  0  0  0  0  0  0  0  0  0  0  0
  -13.4819   -0.2009  -11.4377 H   0  0  0  0  0  0  0  0  0  0  0  0
  -15.5371    1.0728  -11.0038 H   0  0  0  0  0  0  0  0  0  0  0  0
  -16.7345    2.8729   -9.7747 H   0  0  0  0  0  0  0  0  0  0  0  0
  -16.7293    4.6630   -8.0829 H   0  0  0  0  0  0  0  0  0  0  0  0
  -14.6622    5.1780   -6.8147 H   0  0  0  0  0  0  0  0  0  0  0  0
  -12.5969    3.9085   -7.2378 H   0  0  0  0  0  0  0  0  0  0  0  0
  -11.4079    2.1168   -8.4446 H   0  0  0  0  0  0  0  0  0  0  0  0
  1  2  2  0
  2  3  1  0
  3  4  1  0
  4  5  2  0
  4  6  2  0
  4  7  1  0
  7  8  1  0
  8  9  2  0
  9 10  1  0
 10 11  1  0
 10 12  2  0
 12 13  1  0
  2 14  1  0
 14 15  1  0
 15 16  2  0
 16 17  1  0
 17 18  2  0
 18 19  1  0
 19 20  2  0
 20 21  1  0
 21 22  2  0
 22 23  1  0
 13  7  2  0
 23 14  2  0
 22 17  1  0
  3 24  1  0
  8 25  1  0
  9 26  1  0
 11 27  1  0
 11 28  1  0
 11 29  1  0
 12 30  1  0
 13 31  1  0
 15 32  1  0
 16 33  1  0
 18 34  1  0
 19 35  1  0
 20 36  1  0
 21 37  1  0
 23 38  1  0
M  END
>  <formula>  (1) 
C18H15NO3S

$$$$
