
     RDKit          3D

 38 39  0  0  0  0  0  0  0  0999 V2000
   -7.7311    0.8908    0.0103 O   0  0  0  0  0  0  0  0  0  0  0  0
   -6.3924    0.6361   -0.0202 C   0  0  0  0  0  0  0  0  0  0  0  0
   -5.5725    1.5549   -0.6609 C   0  0  0  0  0  0  0  0  0  0  0  0
   -4.1942    1.3320   -0.7169 C   0  0  0  0  0  0  0  0  0  0  0  0
   -3.6216    0.1898   -0.1316 C   0  0  0  0  0  0  0  0  0  0  0  0
   -2.1698   -0.0447   -0.1906 C   0  0  0  0  0  0  0  0  0  0  0  0
   -1.4242   -0.2749    0.9767 C   0  0  0  0  0  0  0  0  0  0  0  0
   -0.0413   -0.4969    0.9262 C   0  0  0  0  0  0  0  0  0  0  0  0
    0.6240   -0.4932   -0.2978 C   0  0  0  0  0  0  0  0  0  0  0  0
    1.9608   -0.6987   -0.4909 O   0  0  0  0  0  0  0  0  0  0  0  0
    2.7749   -0.8468    0.6734 C   0  0  0  0  0  0  0  0  0  0  0  0
    4.2474   -1.0331    0.2552 C   0  0  0  0  0  0  0  0  0  0  0  0
    4.8635    0.1120   -0.4483 N   0  0  0  0  0  0  0  0  0  0  0  0
    6.1921   -0.2560   -0.9411 C   0  0  0  0  0  0  0  0  0  0  0  0
    4.9535    1.3024    0.3955 C   0  0  0  0  0  0  0  0  0  0  0  0
   -0.1057   -0.2687   -1.4654 C   0  0  0  0  0  0  0  0  0  0  0  0
   -1.4853   -0.0453   -1.4145 C   0  0  0  0  0  0  0  0  0  0  0  0
   -4.4771   -0.7226    0.5111 C   0  0  0  0  0  0  0  0  0  0  0  0
   -5.8574   -0.5037    0.5678 C   0  0  0  0  0  0  0  0  0  0  0  0
   -8.1735    0.1650    0.4799 H   0  0  0  0  0  0  0  0  0  0  0  0
   -6.0011    2.4436   -1.1150 H   0  0  0  0  0  0  0  0  0  0  0  0
   -3.5639    2.0666   -1.2141 H   0  0  0  0  0  0  0  0  0  0  0  0
   -1.9180   -0.2702    1.9467 H   0  0  0  0  0  0  0  0  0  0  0  0
    0.4804   -0.6678    1.8613 H   0  0  0  0  0  0  0  0  0  0  0  0
    2.6687    0.0186    1.3366 H   0  0  0  0  0  0  0  0  0  0  0  0
    2.4655   -1.7487    1.2163 H   0  0  0  0  0  0  0  0  0  0  0  0
    4.8367   -1.2887    1.1453 H   0  0  0  0  0  0  0  0  0  0  0  0
    4.2782   -1.9006   -0.4171 H   0  0  0  0  0  0  0  0  0  0  0  0
    6.1283   -1.1097   -1.6251 H   0  0  0  0  0  0  0  0  0  0  0  0
    6.6335    0.5677   -1.5135 H   0  0  0  0  0  0  0  0  0  0  0  0
    6.8772   -0.5162   -0.1260 H   0  0  0  0  0  0  0  0  0  0  0  0
    3.9601    1.6778    0.6596 H   0  0  0  0  0  0  0  0  0  0  0  0
    5.4486    2.1194   -0.1422 H   0  0  0  0  0  0  0  0  0  0  0  0
    5.5131    1.1128    1.3184 H   0  0  0  0  0  0  0  0  0  0  0  0
    0.4050   -0.2665   -2.4255 H   0  0  0  0  0  0  0  0  0  0  0  0
   -2.0243    0.1183   -2.3453 H   0  0  0  0  0  0  0  0  0  0  0  0
   -4.0689   -1.6242    0.9636 H   0  0  0  0  0  0  0  0  0  0  0  0
   -6.4892   -1.2304    1.0681 H   0  0  0  0  0  0  0  0  0  0  0  0
  1  2  1  0
  2  3  1  0
  3  4  2  0
  4  5  1  0
  5  6  1  0
  6  7  1  0
  7  8  2  0
  8  9  1  0
  9 10  1  0
 10 11  1  0
 11 12  1  0
 12 13  1  0
 13 14  1  0
 13 15  1  0
  9 16  2  0
 16 17  1  0
  5 18  2  0
 18 19  1  0
 19  2  2  0
 17  6  2  0
  1 20  1  0
  3 21  1  0
  4 22  1  0
  7 23  1  0
  8 24  1  0
 11 25  1  0
 11 26  1  0
 12 27  1  0
 12 28  1  0
 14 29  1  0
 14 30  1  0
 14 31  1  0
 15 32  1  0
 15 33  1  0
 15 34  1  0
 16 35  1  0
 17 36  1  0
 18 37  1  0
 19 38  1  0
M  END
>  <gene>  (1) 
ESR1

>  <candidate_id>  (1) 
serm_biphenyl_amine

>  <smiles>  (1) 
Oc1ccc(-c2ccc(OCCN(C)C)cc2)cc1

>  <chemical_sanity_pass>  (1) 
True

>  <clinical_grade>  (1) 
False

$$$$
