
     RDKit          3D

 30 32  0  0  0  0  0  0  0  0999 V2000
  -40.8000   12.0309  -15.1936 O   0  0  0  0  0  0  0  0  0  0  0  0
  -40.7955   11.3395  -14.1829 C   0  0  0  0  0  0  0  0  0  0  0  0
  -41.9022   11.0777  -13.3923 N   0  0  0  0  0  0  0  0  0  0  0  0
  -43.2463   11.3900  -13.6893 C   0  0  0  0  0  0  0  0  0  0  0  0
  -44.1279   11.4780  -12.6008 C   0  0  0  0  0  0  0  0  0  0  0  0
  -45.4751   11.7905  -12.8024 C   0  0  0  0  0  0  0  0  0  0  0  0
  -45.9472   11.9974  -14.0929 C   0  0  0  0  0  0  0  0  0  0  0  0
  -47.2398   12.2914  -14.2816 F   0  0  0  0  0  0  0  0  0  0  0  0
  -45.1033   11.8841  -15.1863 C   0  0  0  0  0  0  0  0  0  0  0  0
  -43.7608   11.5728  -14.9822 C   0  0  0  0  0  0  0  0  0  0  0  0
  -43.0117   11.3660  -16.0727 F   0  0  0  0  0  0  0  0  0  0  0  0
  -39.5458   10.7823  -13.6446 C   0  0  0  0  0  0  0  0  0  0  0  0
  -39.4174    9.7729  -12.7003 C   0  0  0  0  0  0  0  0  0  0  0  0
  -38.0839    9.5424  -12.4853 N   0  0  0  0  0  0  0  0  0  0  0  0
  -37.3237   10.3747  -13.2693 C   0  0  0  0  0  0  0  0  0  0  0  0
  -35.9317   10.4853  -13.3772 C   0  0  0  0  0  0  0  0  0  0  0  0
  -35.4228   11.4265  -14.2760 C   0  0  0  0  0  0  0  0  0  0  0  0
  -36.2740   12.2228  -15.0365 C   0  0  0  0  0  0  0  0  0  0  0  0
  -37.6627   12.0983  -14.9154 C   0  0  0  0  0  0  0  0  0  0  0  0
  -38.2072   11.1571  -14.0146 C   0  0  0  0  0  0  0  0  0  0  0  0
  -41.6992   10.7998  -12.4431 H   0  0  0  0  0  0  0  0  0  0  0  0
  -43.7756   11.3278  -11.5833 H   0  0  0  0  0  0  0  0  0  0  0  0
  -46.1578   11.8751  -11.9622 H   0  0  0  0  0  0  0  0  0  0  0  0
  -45.4838   12.0167  -16.1924 H   0  0  0  0  0  0  0  0  0  0  0  0
  -40.1535    9.1772  -12.1779 H   0  0  0  0  0  0  0  0  0  0  0  0
  -37.7034    8.8506  -11.8538 H   0  0  0  0  0  0  0  0  0  0  0  0
  -35.2642    9.8639  -12.7892 H   0  0  0  0  0  0  0  0  0  0  0  0
  -34.3462   11.5363  -14.3850 H   0  0  0  0  0  0  0  0  0  0  0  0
  -35.8615   12.9478  -15.7337 H   0  0  0  0  0  0  0  0  0  0  0  0
  -38.3178   12.7234  -15.5178 H   0  0  0  0  0  0  0  0  0  0  0  0
  1  2  2  0
  2  3  1  0
  3  4  1  0
  4  5  1  0
  5  6  2  0
  6  7  1  0
  7  8  1  0
  7  9  2  0
  9 10  1  0
 10 11  1  0
  2 12  1  0
 12 13  2  0
 13 14  1  0
 14 15  1  0
 15 16  2  0
 16 17  1  0
 17 18  2  0
 18 19  1  0
 19 20  2  0
 10  4  2  0
 20 12  1  0
 20 15  1  0
  3 21  1  0
  5 22  1  0
  6 23  1  0
  9 24  1  0
 13 25  1  0
 14 26  1  0
 16 27  1  0
 17 28  1  0
 18 29  1  0
 19 30  1  0
M  END
>  <formula>  (1) 
C15H10F2N2O

$$$$
