
     RDKit          3D

 40 42  0  0  0  0  0  0  0  0999 V2000
  -48.5132   12.0744  -14.9926 F   0  0  0  0  0  0  0  0  0  0  0  0
  -47.1851   12.0433  -14.8193 C   0  0  0  0  0  0  0  0  0  0  0  0
  -46.6019   10.9532  -14.1904 C   0  0  0  0  0  0  0  0  0  0  0  0
  -45.2134   10.9201  -14.0078 C   0  0  0  0  0  0  0  0  0  0  0  0
  -44.3931   11.9662  -14.4555 C   0  0  0  0  0  0  0  0  0  0  0  0
  -43.0057   11.9983  -14.2791 N   0  0  0  0  0  0  0  0  0  0  0  0
  -42.0897   11.1637  -13.6373 C   0  0  0  0  0  0  0  0  0  0  0  0
  -40.8167   11.5083  -13.8012 N   0  0  0  0  0  0  0  0  0  0  0  0
  -39.9032   10.7511  -13.2013 C   0  0  0  0  0  0  0  0  0  0  0  0
  -38.5712   11.0907  -13.3302 N   0  0  0  0  0  0  0  0  0  0  0  0
  -38.1569   11.9687  -14.4286 C   0  0  0  0  0  0  0  0  0  0  0  0
  -36.8979   11.4195  -15.1413 C   0  0  0  0  0  0  0  0  0  0  0  0
  -35.7411   11.1213  -14.2709 N   0  0  0  0  0  0  0  0  0  0  0  0
  -34.7661   12.2083  -14.2687 C   0  0  0  0  0  0  0  0  0  0  0  0
  -36.1645   10.7992  -12.8897 C   0  0  0  0  0  0  0  0  0  0  0  0
  -37.5696   10.1643  -12.7957 C   0  0  0  0  0  0  0  0  0  0  0  0
  -40.2246    9.7031  -12.4524 N   0  0  0  0  0  0  0  0  0  0  0  0
  -41.5123    9.4303  -12.3555 C   0  0  0  0  0  0  0  0  0  0  0  0
  -41.8752    8.3499  -11.5737 N   0  0  0  0  0  0  0  0  0  0  0  0
  -42.4823   10.1290  -12.9109 N   0  0  0  0  0  0  0  0  0  0  0  0
  -45.0128   13.0603  -15.0823 C   0  0  0  0  0  0  0  0  0  0  0  0
  -46.3944   13.0919  -15.2622 C   0  0  0  0  0  0  0  0  0  0  0  0
  -46.9521   14.1501  -15.8669 F   0  0  0  0  0  0  0  0  0  0  0  0
  -47.2235   10.1336  -13.8440 H   0  0  0  0  0  0  0  0  0  0  0  0
  -44.7897   10.0490  -13.5159 H   0  0  0  0  0  0  0  0  0  0  0  0
  -42.4980   12.7325  -14.7527 H   0  0  0  0  0  0  0  0  0  0  0  0
  -37.9442   12.9639  -14.0204 H   0  0  0  0  0  0  0  0  0  0  0  0
  -38.9362   12.0896  -15.1904 H   0  0  0  0  0  0  0  0  0  0  0  0
  -37.1759   10.4752  -15.6284 H   0  0  0  0  0  0  0  0  0  0  0  0
  -36.6149   12.0946  -15.9587 H   0  0  0  0  0  0  0  0  0  0  0  0
  -34.3726   12.3728  -15.2778 H   0  0  0  0  0  0  0  0  0  0  0  0
  -33.9084   11.9550  -13.6355 H   0  0  0  0  0  0  0  0  0  0  0  0
  -35.1966   13.1498  -13.9091 H   0  0  0  0  0  0  0  0  0  0  0  0
  -36.1712   11.7079  -12.2715 H   0  0  0  0  0  0  0  0  0  0  0  0
  -35.4295   10.1154  -12.4497 H   0  0  0  0  0  0  0  0  0  0  0  0
  -37.7710    9.9460  -11.7396 H   0  0  0  0  0  0  0  0  0  0  0  0
  -37.5884    9.2170  -13.3498 H   0  0  0  0  0  0  0  0  0  0  0  0
  -42.8132    8.4743  -11.2199 H   0  0  0  0  0  0  0  0  0  0  0  0
  -41.1494    8.1518  -10.8990 H   0  0  0  0  0  0  0  0  0  0  0  0
  -44.4302   13.9054  -15.4371 H   0  0  0  0  0  0  0  0  0  0  0  0
  1  2  1  0
  2  3  1  0
  3  4  2  0
  4  5  1  0
  5  6  1  0
  6  7  1  0
  7  8  2  0
  8  9  1  0
  9 10  1  0
 10 11  1  0
 11 12  1  0
 12 13  1  0
 13 14  1  0
 13 15  1  0
 15 16  1  0
  9 17  2  0
 17 18  1  0
 18 19  1  0
 18 20  2  0
  5 21  2  0
 21 22  1  0
 22 23  1  0
 22  2  2  0
 20  7  1  0
 16 10  1  0
  3 24  1  0
  4 25  1  0
  6 26  1  0
 11 27  1  0
 11 28  1  0
 12 29  1  0
 12 30  1  0
 14 31  1  0
 14 32  1  0
 14 33  1  0
 15 34  1  0
 15 35  1  0
 16 36  1  0
 16 37  1  0
 19 38  1  0
 19 39  1  0
 21 40  1  0
M  END
>  <gene>  (1) 
FLT3

>  <candidate_id>  (1) 
flt3_r2_01

$$$$
