
     RDKit          3D

 54 57  0  0  0  0  0  0  0  0999 V2000
  -36.5932   11.7983  -12.4897 O   0  0  0  0  0  0  0  0  0  0  0  0
  -36.4190   11.5790  -13.6818 C   0  0  0  0  0  0  0  0  0  0  0  0
  -37.2959   10.8927  -14.5045 N   0  0  0  0  0  0  0  0  0  0  0  0
  -38.6095   10.4814  -14.1922 C   0  0  0  0  0  0  0  0  0  0  0  0
  -39.1457    9.4453  -14.9641 C   0  0  0  0  0  0  0  0  0  0  0  0
  -40.4390    8.9723  -14.7172 C   0  0  0  0  0  0  0  0  0  0  0  0
  -41.2291    9.5326  -13.7113 C   0  0  0  0  0  0  0  0  0  0  0  0
  -42.4649    8.9681  -13.5853 O   0  0  0  0  0  0  0  0  0  0  0  0
  -43.3811    9.4982  -12.6250 C   0  0  0  0  0  0  0  0  0  0  0  0
  -44.1588   10.7222  -13.1549 C   0  0  0  0  0  0  0  0  0  0  0  0
  -44.9203   10.4916  -14.3987 N   0  0  0  0  0  0  0  0  0  0  0  0
  -45.4345   11.7622  -14.9569 C   0  0  0  0  0  0  0  0  0  0  0  0
  -46.6302   12.3719  -14.1858 C   0  0  0  0  0  0  0  0  0  0  0  0
  -47.7442   11.4190  -14.0348 N   0  0  0  0  0  0  0  0  0  0  0  0
  -48.8215   11.9912  -13.2332 C   0  0  0  0  0  0  0  0  0  0  0  0
  -47.2642   10.1525  -13.4543 C   0  0  0  0  0  0  0  0  0  0  0  0
  -46.0611    9.5672  -14.2330 C   0  0  0  0  0  0  0  0  0  0  0  0
  -40.7140   10.5834  -12.9606 C   0  0  0  0  0  0  0  0  0  0  0  0
  -39.4213   11.0560  -13.2075 C   0  0  0  0  0  0  0  0  0  0  0  0
  -39.0342   12.1388  -12.5202 F   0  0  0  0  0  0  0  0  0  0  0  0
  -35.1669   11.9626  -14.3516 C   0  0  0  0  0  0  0  0  0  0  0  0
  -34.9382   12.0408  -15.7186 C   0  0  0  0  0  0  0  0  0  0  0  0
  -33.6460   12.4478  -15.9234 N   0  0  0  0  0  0  0  0  0  0  0  0
  -33.0125   12.6463  -14.7214 C   0  0  0  0  0  0  0  0  0  0  0  0
  -31.7018   13.0607  -14.4533 C   0  0  0  0  0  0  0  0  0  0  0  0
  -31.3220   13.1881  -13.1144 C   0  0  0  0  0  0  0  0  0  0  0  0
  -32.2195   12.9129  -12.0869 C   0  0  0  0  0  0  0  0  0  0  0  0
  -33.5255   12.5000  -12.3740 C   0  0  0  0  0  0  0  0  0  0  0  0
  -33.9387   12.3607  -13.7170 C   0  0  0  0  0  0  0  0  0  0  0  0
  -36.8912   10.5062  -15.3447 H   0  0  0  0  0  0  0  0  0  0  0  0
  -38.5651    8.9752  -15.7535 H   0  0  0  0  0  0  0  0  0  0  0  0
  -40.8381    8.1575  -15.3181 H   0  0  0  0  0  0  0  0  0  0  0  0
  -42.8807    9.7298  -11.6775 H   0  0  0  0  0  0  0  0  0  0  0  0
  -44.0793    8.6910  -12.3796 H   0  0  0  0  0  0  0  0  0  0  0  0
  -44.8064   11.0940  -12.3529 H   0  0  0  0  0  0  0  0  0  0  0  0
  -43.4249   11.5116  -13.3557 H   0  0  0  0  0  0  0  0  0  0  0  0
  -45.7461   11.5743  -15.9933 H   0  0  0  0  0  0  0  0  0  0  0  0
  -44.6267   12.5013  -15.0268 H   0  0  0  0  0  0  0  0  0  0  0  0
  -46.9797   13.2513  -14.7404 H   0  0  0  0  0  0  0  0  0  0  0  0
  -46.2880   12.7248  -13.2044 H   0  0  0  0  0  0  0  0  0  0  0  0
  -49.6643   11.2942  -13.1688 H   0  0  0  0  0  0  0  0  0  0  0  0
  -48.4971   12.2342  -12.2149 H   0  0  0  0  0  0  0  0  0  0  0  0
  -49.2038   12.9056  -13.7001 H   0  0  0  0  0  0  0  0  0  0  0  0
  -46.9848   10.2900  -12.4019 H   0  0  0  0  0  0  0  0  0  0  0  0
  -48.0756    9.4149  -13.4781 H   0  0  0  0  0  0  0  0  0  0  0  0
  -46.4065    9.2811  -15.2362 H   0  0  0  0  0  0  0  0  0  0  0  0
  -45.7444    8.6281  -13.7680 H   0  0  0  0  0  0  0  0  0  0  0  0
  -41.2804   11.0843  -12.1858 H   0  0  0  0  0  0  0  0  0  0  0  0
  -35.5847   11.8676  -16.5681 H   0  0  0  0  0  0  0  0  0  0  0  0
  -33.2156   12.5980  -16.8257 H   0  0  0  0  0  0  0  0  0  0  0  0
  -30.9999   13.2796  -15.2512 H   0  0  0  0  0  0  0  0  0  0  0  0
  -30.3117   13.5093  -12.8722 H   0  0  0  0  0  0  0  0  0  0  0  0
  -31.9088   13.0201  -11.0507 H   0  0  0  0  0  0  0  0  0  0  0  0
  -34.2192   12.2910  -11.5628 H   0  0  0  0  0  0  0  0  0  0  0  0
  1  2  2  0
  2  3  1  0
  3  4  1  0
  4  5  1  0
  5  6  2  0
  6  7  1  0
  7  8  1  0
  8  9  1  0
  9 10  1  0
 10 11  1  0
 11 12  1  0
 12 13  1  0
 13 14  1  0
 14 15  1  0
 14 16  1  0
 16 17  1  0
  7 18  2  0
 18 19  1  0
 19 20  1  0
  2 21  1  0
 21 22  2  0
 22 23  1  0
 23 24  1  0
 24 25  2  0
 25 26  1  0
 26 27  2  0
 27 28  1  0
 28 29  2  0
 19  4  2  0
 29 21  1  0
 17 11  1  0
 29 24  1  0
  3 30  1  0
  5 31  1  0
  6 32  1  0
  9 33  1  0
  9 34  1  0
 10 35  1  0
 10 36  1  0
 12 37  1  0
 12 38  1  0
 13 39  1  0
 13 40  1  0
 15 41  1  0
 15 42  1  0
 15 43  1  0
 16 44  1  0
 16 45  1  0
 17 46  1  0
 17 47  1  0
 18 48  1  0
 22 49  1  0
 23 50  1  0
 25 51  1  0
 26 52  1  0
 27 53  1  0
 28 54  1  0
M  END
>  <gene>  (1) 
FLT3

>  <formula>  (1) 
C22H25FN4O2

>  <fsp3>  (1) 
0.3182

$$$$
