
     RDKit          3D

 37 39  0  0  0  0  0  0  0  0999 V2000
   32.5429   -6.9555   20.2740 O   0  0  0  0  0  0  0  0  0  0  0  0
   32.3293   -6.0882   21.1116 C   0  0  0  0  0  0  0  0  0  0  0  0
   33.2594   -5.2882   21.7488 N   0  0  0  0  0  0  0  0  0  0  0  0
   34.6555   -5.2790   21.5895 C   0  0  0  0  0  0  0  0  0  0  0  0
   35.3810   -4.3620   22.3640 C   0  0  0  0  0  0  0  0  0  0  0  0
   36.7726   -4.2912   22.2628 C   0  0  0  0  0  0  0  0  0  0  0  0
   37.4378   -5.1381   21.3868 C   0  0  0  0  0  0  0  0  0  0  0  0
   38.7717   -5.0716   21.2884 F   0  0  0  0  0  0  0  0  0  0  0  0
   36.7367   -6.0524   20.6120 C   0  0  0  0  0  0  0  0  0  0  0  0
   35.3437   -6.1233   20.7132 C   0  0  0  0  0  0  0  0  0  0  0  0
   30.9297   -5.8067   21.5422 C   0  0  0  0  0  0  0  0  0  0  0  0
   29.8733   -6.5269   21.0127 C   0  0  0  0  0  0  0  0  0  0  0  0
   28.5821   -6.3010   21.3753 N   0  0  0  0  0  0  0  0  0  0  0  0
   28.3584   -5.3285   22.2893 C   0  0  0  0  0  0  0  0  0  0  0  0
   27.0479   -5.0399   22.7100 N   0  0  0  0  0  0  0  0  0  0  0  0
   26.0251   -6.0213   22.2762 C   0  0  0  0  0  0  0  0  0  0  0  0
   25.2933   -5.5223   21.0225 C   0  0  0  0  0  0  0  0  0  0  0  0
   24.5988   -4.2773   21.2281 O   0  0  0  0  0  0  0  0  0  0  0  0
   25.1436   -3.4928   22.3003 C   0  0  0  0  0  0  0  0  0  0  0  0
   26.6687   -3.6323   22.4301 C   0  0  0  0  0  0  0  0  0  0  0  0
   29.4520   -4.6209   22.8178 C   0  0  0  0  0  0  0  0  0  0  0  0
   30.7502   -4.8238   22.4666 N   0  0  0  0  0  0  0  0  0  0  0  0
   32.8563   -4.6314   22.4146 H   0  0  0  0  0  0  0  0  0  0  0  0
   34.8733   -3.6931   23.0542 H   0  0  0  0  0  0  0  0  0  0  0  0
   37.3382   -3.5835   22.8600 H   0  0  0  0  0  0  0  0  0  0  0  0
   37.2733   -6.7068   19.9324 H   0  0  0  0  0  0  0  0  0  0  0  0
   34.8249   -6.8486   20.0942 H   0  0  0  0  0  0  0  0  0  0  0  0
   30.0263   -7.3107   20.2782 H   0  0  0  0  0  0  0  0  0  0  0  0
   26.4298   -7.0284   22.1239 H   0  0  0  0  0  0  0  0  0  0  0  0
   25.3008   -6.1138   23.0956 H   0  0  0  0  0  0  0  0  0  0  0  0
   25.9941   -5.3769   20.1927 H   0  0  0  0  0  0  0  0  0  0  0  0
   24.5498   -6.2582   20.7008 H   0  0  0  0  0  0  0  0  0  0  0  0
   24.6445   -3.7928   23.2291 H   0  0  0  0  0  0  0  0  0  0  0  0
   24.8765   -2.4485   22.1099 H   0  0  0  0  0  0  0  0  0  0  0  0
   27.1226   -3.2938   21.4886 H   0  0  0  0  0  0  0  0  0  0  0  0
   27.0246   -2.9876   23.2413 H   0  0  0  0  0  0  0  0  0  0  0  0
   29.2990   -3.8581   23.5748 H   0  0  0  0  0  0  0  0  0  0  0  0
  1  2  2  0
  2  3  1  0
  3  4  1  0
  4  5  1  0
  5  6  2  0
  6  7  1  0
  7  8  1  0
  7  9  2  0
  9 10  1  0
  2 11  1  0
 11 12  2  0
 12 13  1  0
 13 14  2  0
 14 15  1  0
 15 16  1  0
 16 17  1  0
 17 18  1  0
 18 19  1  0
 19 20  1  0
 14 21  1  0
 21 22  2  0
 10  4  2  0
 22 11  1  0
 20 15  1  0
  3 23  1  0
  5 24  1  0
  6 25  1  0
  9 26  1  0
 10 27  1  0
 12 28  1  0
 16 29  1  0
 16 30  1  0
 17 31  1  0
 17 32  1  0
 19 33  1  0
 19 34  1  0
 20 35  1  0
 20 36  1  0
 21 37  1  0
M  END
>  <gene>  (1) 
GSK3B

>  <candidate_id>  (1) 
gsk_x01

$$$$
