
     RDKit          3D

 34 37  0  0  0  0  0  0  0  0999 V2000
   33.7007   -2.4369   22.6928 C   0  0  0  0  0  0  0  0  0  0  0  0
   34.7210   -3.3282   22.4044 C   0  0  0  0  0  0  0  0  0  0  0  0
   34.4063   -4.6020   21.9302 C   0  0  0  0  0  0  0  0  0  0  0  0
   33.0601   -5.0118   21.7339 C   0  0  0  0  0  0  0  0  0  0  0  0
   32.0394   -4.0902   22.0329 C   0  0  0  0  0  0  0  0  0  0  0  0
   32.3754   -2.8280   22.5038 C   0  0  0  0  0  0  0  0  0  0  0  0
   30.7405   -4.3654   21.8822 N   0  0  0  0  0  0  0  0  0  0  0  0
   30.3539   -5.5736   21.4243 C   0  0  0  0  0  0  0  0  0  0  0  0
   28.9688   -5.8248   21.2252 N   0  0  0  0  0  0  0  0  0  0  0  0
   27.8648   -5.0912   21.7165 C   0  0  0  0  0  0  0  0  0  0  0  0
   27.9025   -4.3813   22.9224 C   0  0  0  0  0  0  0  0  0  0  0  0
   26.7667   -3.7295   23.4130 C   0  0  0  0  0  0  0  0  0  0  0  0
   25.5643   -3.8009   22.7155 C   0  0  0  0  0  0  0  0  0  0  0  0
   25.4955   -4.5336   21.5343 C   0  0  0  0  0  0  0  0  0  0  0  0
   26.6338   -5.1834   21.0474 C   0  0  0  0  0  0  0  0  0  0  0  0
   31.2835   -6.5886   21.1062 C   0  0  0  0  0  0  0  0  0  0  0  0
   30.9047   -7.8758   20.6620 C   0  0  0  0  0  0  0  0  0  0  0  0
   31.8769   -8.8122   20.3650 C   0  0  0  0  0  0  0  0  0  0  0  0
   33.1911   -8.5680   20.4745 N   0  0  0  0  0  0  0  0  0  0  0  0
   33.5420   -7.3361   20.9166 C   0  0  0  0  0  0  0  0  0  0  0  0
   32.6555   -6.2977   21.2569 C   0  0  0  0  0  0  0  0  0  0  0  0
   33.9265   -1.4404   23.0628 H   0  0  0  0  0  0  0  0  0  0  0  0
   35.7589   -3.0378   22.5469 H   0  0  0  0  0  0  0  0  0  0  0  0
   35.2346   -5.2722   21.7170 H   0  0  0  0  0  0  0  0  0  0  0  0
   31.5761   -2.1246   22.7294 H   0  0  0  0  0  0  0  0  0  0  0  0
   28.8291   -6.0893   20.2560 H   0  0  0  0  0  0  0  0  0  0  0  0
   28.8210   -4.3293   23.5009 H   0  0  0  0  0  0  0  0  0  0  0  0
   26.8255   -3.1735   24.3448 H   0  0  0  0  0  0  0  0  0  0  0  0
   24.6816   -3.2959   23.0980 H   0  0  0  0  0  0  0  0  0  0  0  0
   24.5558   -4.6061   20.9936 H   0  0  0  0  0  0  0  0  0  0  0  0
   26.5481   -5.7622   20.1318 H   0  0  0  0  0  0  0  0  0  0  0  0
   29.8614   -8.1590   20.5656 H   0  0  0  0  0  0  0  0  0  0  0  0
   31.6127   -9.8098   20.0262 H   0  0  0  0  0  0  0  0  0  0  0  0
   34.6185   -7.2125   20.9920 H   0  0  0  0  0  0  0  0  0  0  0  0
  1  2  2  0
  2  3  1  0
  3  4  2  0
  4  5  1  0
  5  6  2  0
  5  7  1  0
  7  8  2  0
  8  9  1  0
  9 10  1  0
 10 11  2  0
 11 12  1  0
 12 13  2  0
 13 14  1  0
 14 15  2  0
  8 16  1  0
 16 17  2  0
 17 18  1  0
 18 19  2  0
 19 20  1  0
 20 21  2  0
  6  1  1  0
 15 10  1  0
 21 16  1  0
 21  4  1  0
  1 22  1  0
  2 23  1  0
  3 24  1  0
  6 25  1  0
  9 26  1  0
 11 27  1  0
 12 28  1  0
 13 29  1  0
 14 30  1  0
 15 31  1  0
 17 32  1  0
 18 33  1  0
 20 34  1  0
M  END
>  <gene>  (1) 
GSK3B

>  <candidate_id>  (1) 
gsk_x02

$$$$
