
     RDKit          3D

 38 40  0  0  0  0  0  0  0  0999 V2000
   30.7794   -1.8631   22.7186 C   0  0  0  0  0  0  0  0  0  0  0  0
   30.5451   -3.2465   22.1994 C   0  0  0  0  0  0  0  0  0  0  0  0
   29.2777   -3.6036   21.9354 N   0  0  0  0  0  0  0  0  0  0  0  0
   29.0590   -4.8398   21.4611 C   0  0  0  0  0  0  0  0  0  0  0  0
   27.7516   -5.2334   21.1819 N   0  0  0  0  0  0  0  0  0  0  0  0
   27.3256   -6.5944   21.5597 C   0  0  0  0  0  0  0  0  0  0  0  0
   26.0454   -6.5540   22.4120 C   0  0  0  0  0  0  0  0  0  0  0  0
   24.9464   -5.8948   21.7685 O   0  0  0  0  0  0  0  0  0  0  0  0
   25.3495   -4.7790   20.9572 C   0  0  0  0  0  0  0  0  0  0  0  0
   26.7186   -4.1939   21.3366 C   0  0  0  0  0  0  0  0  0  0  0  0
   30.1238   -5.6853   21.2063 C   0  0  0  0  0  0  0  0  0  0  0  0
   31.4052   -5.2384   21.4806 C   0  0  0  0  0  0  0  0  0  0  0  0
   32.4781   -6.1238   21.2217 N   0  0  0  0  0  0  0  0  0  0  0  0
   33.8452   -5.9754   21.5547 C   0  0  0  0  0  0  0  0  0  0  0  0
   34.2891   -5.2854   22.6874 C   0  0  0  0  0  0  0  0  0  0  0  0
   35.6525   -5.2218   23.0012 C   0  0  0  0  0  0  0  0  0  0  0  0
   36.5925   -5.8658   22.1970 C   0  0  0  0  0  0  0  0  0  0  0  0
   36.1691   -6.5822   21.0814 C   0  0  0  0  0  0  0  0  0  0  0  0
   34.8106   -6.6378   20.7789 C   0  0  0  0  0  0  0  0  0  0  0  0
   34.4160   -7.3402   19.7037 F   0  0  0  0  0  0  0  0  0  0  0  0
   31.6199   -4.0206   21.9941 N   0  0  0  0  0  0  0  0  0  0  0  0
   29.9251   -1.5247   23.3130 H   0  0  0  0  0  0  0  0  0  0  0  0
   30.9215   -1.1744   21.8808 H   0  0  0  0  0  0  0  0  0  0  0  0
   31.6703   -1.8354   23.3535 H   0  0  0  0  0  0  0  0  0  0  0  0
   27.1291   -7.1500   20.6355 H   0  0  0  0  0  0  0  0  0  0  0  0
   28.0932   -7.1357   22.1242 H   0  0  0  0  0  0  0  0  0  0  0  0
   25.7223   -7.5728   22.6493 H   0  0  0  0  0  0  0  0  0  0  0  0
   26.2342   -6.0441   23.3642 H   0  0  0  0  0  0  0  0  0  0  0  0
   25.3585   -5.1203   19.9154 H   0  0  0  0  0  0  0  0  0  0  0  0
   24.5729   -4.0126   21.0445 H   0  0  0  0  0  0  0  0  0  0  0  0
   26.9336   -3.3418   20.6809 H   0  0  0  0  0  0  0  0  0  0  0  0
   26.6857   -3.8417   22.3757 H   0  0  0  0  0  0  0  0  0  0  0  0
   29.9671   -6.6694   20.7858 H   0  0  0  0  0  0  0  0  0  0  0  0
   32.3852   -6.5300   20.2931 H   0  0  0  0  0  0  0  0  0  0  0  0
   33.5787   -4.7933   23.3463 H   0  0  0  0  0  0  0  0  0  0  0  0
   35.9755   -4.6711   23.8816 H   0  0  0  0  0  0  0  0  0  0  0  0
   37.6493   -5.8145   22.4456 H   0  0  0  0  0  0  0  0  0  0  0  0
   36.8824   -7.0992   20.4483 H   0  0  0  0  0  0  0  0  0  0  0  0
  1  2  1  0
  2  3  1  0
  3  4  2  0
  4  5  1  0
  5  6  1  0
  6  7  1  0
  7  8  1  0
  8  9  1  0
  9 10  1  0
  4 11  1  0
 11 12  2  0
 12 13  1  0
 13 14  1  0
 14 15  2  0
 15 16  1  0
 16 17  2  0
 17 18  1  0
 18 19  2  0
 19 20  1  0
 12 21  1  0
 21  2  2  0
 10  5  1  0
 19 14  1  0
  1 22  1  0
  1 23  1  0
  1 24  1  0
  6 25  1  0
  6 26  1  0
  7 27  1  0
  7 28  1  0
  9 29  1  0
  9 30  1  0
 10 31  1  0
 10 32  1  0
 11 33  1  0
 13 34  1  0
 15 35  1  0
 16 36  1  0
 17 37  1  0
 18 38  1  0
M  END
>  <gene>  (1) 
GSK3B

>  <candidate_id>  (1) 
gsk_x10

$$$$
