
     RDKit          3D

 45 48  0  0  0  0  0  0  0  0999 V2000
   -0.4751   -3.1999    0.7139 O   0  0  0  0  0  0  0  0  0  0  0  0
   -0.4844   -2.0120    0.3992 C   0  0  0  0  0  0  0  0  0  0  0  0
   -1.6575   -1.2756    0.1851 N   0  0  0  0  0  0  0  0  0  0  0  0
   -1.7341    0.1529    0.5055 C   0  0  0  0  0  0  0  0  0  0  0  0
   -2.8363    0.8444   -0.2826 C   0  0  0  0  0  0  0  0  0  0  0  0
   -4.1732    0.1303   -0.0983 C   0  0  0  0  0  0  0  0  0  0  0  0
   -4.0457   -1.3513   -0.4435 C   0  0  0  0  0  0  0  0  0  0  0  0
   -2.9148   -2.0051    0.3373 C   0  0  0  0  0  0  0  0  0  0  0  0
   -5.1409    0.7402   -0.9720 O   0  0  0  0  0  0  0  0  0  0  0  0
   -6.2956    0.9375   -0.1574 C   0  0  0  0  0  0  0  0  0  0  0  0
   -5.7135    1.1777    1.2072 C   0  0  0  0  0  0  0  0  0  0  0  0
   -4.6167    0.2658    1.2642 O   0  0  0  0  0  0  0  0  0  0  0  0
    0.8233   -1.3447    0.2027 C   0  0  0  0  0  0  0  0  0  0  0  0
    1.0964   -0.6412   -0.9736 C   0  0  0  0  0  0  0  0  0  0  0  0
    2.3484   -0.0447   -1.1506 C   0  0  0  0  0  0  0  0  0  0  0  0
    3.3490   -0.1529   -0.1681 C   0  0  0  0  0  0  0  0  0  0  0  0
    4.6668    0.4759   -0.3576 C   0  0  0  0  0  0  0  0  0  0  0  0
    5.4326    0.2177   -1.5095 C   0  0  0  0  0  0  0  0  0  0  0  0
    6.6831    0.8147   -1.6898 C   0  0  0  0  0  0  0  0  0  0  0  0
    7.1769    1.6754   -0.7189 C   0  0  0  0  0  0  0  0  0  0  0  0
    8.3749    2.2486   -0.8915 F   0  0  0  0  0  0  0  0  0  0  0  0
    6.4454    1.9500    0.4287 C   0  0  0  0  0  0  0  0  0  0  0  0
    5.1954    1.3517    0.6085 C   0  0  0  0  0  0  0  0  0  0  0  0
    3.0601   -0.8871    0.9961 C   0  0  0  0  0  0  0  0  0  0  0  0
    1.8107   -1.4872    1.1790 C   0  0  0  0  0  0  0  0  0  0  0  0
   -1.9156    0.2332    1.5847 H   0  0  0  0  0  0  0  0  0  0  0  0
   -0.7852    0.6592    0.3183 H   0  0  0  0  0  0  0  0  0  0  0  0
   -2.5743    0.8687   -1.3482 H   0  0  0  0  0  0  0  0  0  0  0  0
   -2.9147    1.8886    0.0434 H   0  0  0  0  0  0  0  0  0  0  0  0
   -4.9843   -1.8763   -0.2285 H   0  0  0  0  0  0  0  0  0  0  0  0
   -3.8664   -1.4621   -1.5208 H   0  0  0  0  0  0  0  0  0  0  0  0
   -3.1478   -2.0516    1.4082 H   0  0  0  0  0  0  0  0  0  0  0  0
   -2.7898   -3.0367   -0.0114 H   0  0  0  0  0  0  0  0  0  0  0  0
   -6.8951    0.0212   -0.1860 H   0  0  0  0  0  0  0  0  0  0  0  0
   -6.8934    1.7735   -0.5282 H   0  0  0  0  0  0  0  0  0  0  0  0
   -5.3153    2.1936    1.3026 H   0  0  0  0  0  0  0  0  0  0  0  0
   -6.4180    0.9872    2.0204 H   0  0  0  0  0  0  0  0  0  0  0  0
    0.3436   -0.5613   -1.7536 H   0  0  0  0  0  0  0  0  0  0  0  0
    2.5395    0.5125   -2.0660 H   0  0  0  0  0  0  0  0  0  0  0  0
    5.0618   -0.4654   -2.2715 H   0  0  0  0  0  0  0  0  0  0  0  0
    7.2725    0.6098   -2.5776 H   0  0  0  0  0  0  0  0  0  0  0  0
    6.8486    2.6271    1.1747 H   0  0  0  0  0  0  0  0  0  0  0  0
    4.6272    1.5823    1.5076 H   0  0  0  0  0  0  0  0  0  0  0  0
    3.8199   -1.0150    1.7652 H   0  0  0  0  0  0  0  0  0  0  0  0
    1.6117   -2.0695    2.0759 H   0  0  0  0  0  0  0  0  0  0  0  0
  1  2  2  0
  2  3  1  0
  3  4  1  0
  4  5  1  0
  5  6  1  0
  6  7  1  0
  7  8  1  0
  6  9  1  0
  9 10  1  0
 10 11  1  0
 11 12  1  0
  2 13  1  0
 13 14  1  0
 14 15  2  0
 15 16  1  0
 16 17  1  0
 17 18  1  0
 18 19  2  0
 19 20  1  0
 20 21  1  0
 20 22  2  0
 22 23  1  0
 16 24  2  0
 24 25  1  0
  8  3  1  0
 25 13  2  0
 12  6  1  0
 23 17  2  0
  4 26  1  0
  4 27  1  0
  5 28  1  0
  5 29  1  0
  7 30  1  0
  7 31  1  0
  8 32  1  0
  8 33  1  0
 10 34  1  0
 10 35  1  0
 11 36  1  0
 11 37  1  0
 14 38  1  0
 15 39  1  0
 18 40  1  0
 19 41  1  0
 22 42  1  0
 23 43  1  0
 24 44  1  0
 25 45  1  0
M  END
$$$$
