egfr_lead
     RDKit          3D

 30 33  0  0  0  0  0  0  0  0999 V2000
   -2.2413    4.4703    1.6478 C   0  0  0  0  0  0  0  0  0  0  0  0
   -1.9578    3.0859    1.4851 O   0  0  0  0  0  0  0  0  0  0  0  0
   -0.7194    2.7463    0.9988 C   0  0  0  0  0  0  0  0  0  0  0  0
    0.1738    3.6528    0.4149 C   0  0  0  0  0  0  0  0  0  0  0  0
    1.4103    3.2563   -0.0746 C   0  0  0  0  0  0  0  0  0  0  0  0
    2.2119    4.1873   -0.5982 N   0  0  0  0  0  0  0  0  0  0  0  0
    3.4017    3.7752   -1.0443 C   0  0  0  0  0  0  0  0  0  0  0  0
    3.8529    2.5198   -1.0367 N   0  0  0  0  0  0  0  0  0  0  0  0
    3.0317    1.5830   -0.5299 C   0  0  0  0  0  0  0  0  0  0  0  0
    3.4407    0.2219   -0.5482 N   0  0  0  0  0  0  0  0  0  0  0  0
    4.7461   -0.2933   -0.7146 C   0  0  0  0  0  0  0  0  0  0  0  0
    5.8881    0.3942   -0.2755 C   0  0  0  0  0  0  0  0  0  0  0  0
    7.1611   -0.1769   -0.3821 C   0  0  0  0  0  0  0  0  0  0  0  0
    7.2925   -1.4530   -0.9079 C   0  0  0  0  0  0  0  0  0  0  0  0
    8.5080   -2.0051   -1.0048 F   0  0  0  0  0  0  0  0  0  0  0  0
    6.1782   -2.1702   -1.3225 C   0  0  0  0  0  0  0  0  0  0  0  0
    4.9088   -1.5959   -1.2152 C   0  0  0  0  0  0  0  0  0  0  0  0
    1.7647    1.9050   -0.0024 C   0  0  0  0  0  0  0  0  0  0  0  0
    0.8672    0.9786    0.5922 C   0  0  0  0  0  0  0  0  0  0  0  0
   -0.3664    1.3919    1.0973 C   0  0  0  0  0  0  0  0  0  0  0  0
   -1.2853    0.5750    1.7001 O   0  0  0  0  0  0  0  0  0  0  0  0
   -0.9731   -0.7958    1.9491 C   0  0  0  0  0  0  0  0  0  0  0  0
   -1.3124   -1.6853    0.7376 C   0  0  0  0  0  0  0  0  0  0  0  0
   -2.7148   -2.1464    0.6837 N   0  0  0  0  0  0  0  0  0  0  0  0
   -3.6735   -1.0234    0.5960 C   0  0  0  0  0  0  0  0  0  0  0  0
   -5.1387   -1.4991    0.4310 C   0  0  0  0  0  0  0  0  0  0  0  0
   -5.3732   -2.4429   -0.6815 N   0  0  0  0  0  0  0  0  0  0  0  0
   -5.3354   -1.7661   -1.9767 C   0  0  0  0  0  0  0  0  0  0  0  0
   -4.3793   -3.5315   -0.6005 C   0  0  0  0  0  0  0  0  0  0  0  0
   -2.9117   -3.0648   -0.4563 C   0  0  0  0  0  0  0  0  0  0  0  0
  1  2  1  0
  2  3  1  0
  3  4  2  0
  4  5  1  0
  5  6  2  0
  6  7  1  0
  7  8  2  0
  8  9  1  0
  9 10  1  0
 10 11  1  0
 11 12  1  0
 12 13  2  0
 13 14  1  0
 14 15  1  0
 14 16  2  0
 16 17  1  0
  9 18  2  0
 18 19  1  0
 19 20  2  0
 20 21  1  0
 21 22  1  0
 22 23  1  0
 23 24  1  0
 24 25  1  0
 25 26  1  0
 26 27  1  0
 27 28  1  0
 27 29  1  0
 29 30  1  0
 20  3  1  0
 30 24  1  0
 18  5  1  0
 17 11  2  0
M  END
>  <gene>  (1) 
EGFR

>  <formula>  (1) 
C22H26FN5O2

>  <clinical_grade>  (1) 
false

>  <fsp3>  (1) 
0.3636

$$$$
