gpt56v91-sm-krasg12d-00379-LSDREBDFWDRPJZ
     RDKit          2D

 22 25  0  0  0  0  0  0  0  0999 V2000
    2.9382   -3.9986    0.0000 N   0  0  0  0  0  0  0  0  0  0  0  0
    2.7131   -2.5155    0.0000 C   0  0  0  0  0  0  0  0  0  0  0  0
    3.8849   -1.5791    0.0000 C   0  0  0  0  0  0  0  0  0  0  0  0
    3.6598   -0.0961    0.0000 C   0  0  0  0  0  0  0  0  0  0  0  0
    4.8315    0.8404    0.0000 C   0  0  0  0  0  0  0  0  0  0  0  0
    4.6064    2.3234    0.0000 C   0  0  0  0  0  0  0  0  0  0  0  0
    3.2095    2.8699    0.0000 C   0  0  0  0  0  0  0  0  0  0  0  0
    2.0378    1.9335    0.0000 C   0  0  0  0  0  0  0  0  0  0  0  0
    2.2629    0.4505    0.0000 C   0  0  0  0  0  0  0  0  0  0  0  0
    1.0911   -0.4860    0.0000 C   0  0  0  0  0  0  0  0  0  0  0  0
   -0.3058    0.0606    0.0000 C   0  0  0  0  0  0  0  0  0  0  0  0
   -1.4775   -0.8759    0.0000 O   0  0  0  0  0  0  0  0  0  0  0  0
   -2.8744   -0.3293    0.0000 C   0  0  0  0  0  0  0  0  0  0  0  0
   -2.9626   -1.8267    0.0000 C   0  0  0  0  0  0  0  0  0  0  0  0
   -4.4139   -2.2056    0.0000 C   0  0  0  0  0  0  0  0  0  0  0  0
   -5.2228   -0.9424    0.0000 C   0  0  0  0  0  0  0  0  0  0  0  0
   -4.2713    0.2172    0.0000 N   0  0  0  0  0  0  0  0  0  0  0  0
   -4.1832    1.7146    0.0000 C   0  0  0  0  0  0  0  0  0  0  0  0
   -2.7318    2.0935    0.0000 C   0  0  0  0  0  0  0  0  0  0  0  0
   -2.1853    3.4904    0.0000 F   0  0  0  0  0  0  0  0  0  0  0  0
   -1.9230    0.8303    0.0000 C   0  0  0  0  0  0  0  0  0  0  0  0
    1.3162   -1.9690    0.0000 N   0  0  0  0  0  0  0  0  0  0  0  0
  1  2  1  0
  2  3  2  0
  3  4  1  0
  4  5  2  0
  5  6  1  0
  6  7  2  0
  7  8  1  0
  8  9  2  0
  9 10  1  0
 10 11  1  0
 11 12  1  0
 13 12  1  1
 13 14  1  0
 14 15  1  0
 15 16  1  0
 16 17  1  0
 17 18  1  0
 18 19  1  0
 19 20  1  6
 19 21  1  0
 10 22  2  0
 22  2  1  0
  9  4  1  0
 17 13  1  0
 21 13  1  0
M  END
>  <CANDIDATE_ID>  (1) 
gpt56v91-sm-krasg12d-00379-LSDREBDFWDRPJZ

>  <STATE>  (1) 
COMPUTATIONAL_PRIORITY

>  <ROUTE_ID>  (1) 
KRAS_G12D

>  <INCHIKEY>  (1) 
LSDREBDFWDRPJZ-CXAGYDPISA-N

>  <ISOMERIC_SMILES>  (1) 
Nc1cc2ccccc2c(CO[C@@]23CCCN2C[C@H](F)C3)n1

>  <FORMULA>  (1) 
C17H20FN3O

>  <PRIMARY_GEOMETRY>  (1) 
9BL0

>  <STRUCTURE_DIMENSION>  (1) 
2D_DEPICTION

>  <TARGET_POSE_STATUS>  (1) 
NOT_COMPUTED

>  <CLINICAL_GRADE>  (1) 
false

>  <DRUGGABLE>  (1) 
false

>  <GLOBAL_NOVELTY>  (1) 
NOT_ESTABLISHED

>  <CURATED_RANK>  (1) 
1

>  <QED>  (1) 
0.9469

$$$$
gpt56v91-sm-krasg12d-02621-FLRZLMYSWNATQP
     RDKit          2D

 21 23  0  0  0  0  0  0  0  0999 V2000
   -2.8906    1.8066    0.0000 C   0  0  0  0  0  0  0  0  0  0  0  0
   -3.8355    0.6416    0.0000 N   0  0  0  0  0  0  0  0  0  0  0  0
   -5.3333    0.7213    0.0000 C   0  0  0  0  0  0  0  0  0  0  0  0
   -5.8720   -0.6786    0.0000 C   0  0  0  0  0  0  0  0  0  0  0  0
   -4.7071   -1.6236    0.0000 C   0  0  0  0  0  0  0  0  0  0  0  0
   -3.4484   -0.8076    0.0000 C   0  0  0  0  0  0  0  0  0  0  0  0
   -2.0485   -1.3463    0.0000 O   0  0  0  0  0  0  0  0  0  0  0  0
   -0.8820   -0.4032    0.0000 C   0  0  0  0  0  0  0  0  0  0  0  0
    0.5180   -0.9419    0.0000 C   0  0  0  0  0  0  0  0  0  0  0  0
    0.7514   -2.4236    0.0000 C   0  0  0  0  0  0  0  0  0  0  0  0
    2.1514   -2.9623    0.0000 C   0  0  0  0  0  0  0  0  0  0  0  0
    3.3178   -2.0193    0.0000 C   0  0  0  0  0  0  0  0  0  0  0  0
    4.7178   -2.5579    0.0000 F   0  0  0  0  0  0  0  0  0  0  0  0
    3.0844   -0.5375    0.0000 C   0  0  0  0  0  0  0  0  0  0  0  0
    4.0293    0.6274    0.0000 S   0  0  0  0  0  0  0  0  0  0  0  0
    3.2133    1.8861    0.0000 C   0  0  0  0  0  0  0  0  0  0  0  0
    3.7520    3.2860    0.0000 N   0  0  0  0  0  0  0  0  0  0  0  0
    1.7641    1.4990    0.0000 C   0  0  0  0  0  0  0  0  0  0  0  0
    0.5992    2.4439    0.0000 C   0  0  0  0  0  0  0  0  0  0  0  0
   -0.5658    3.3888    0.0000 N   0  0  0  0  0  0  0  0  0  0  0  0
    1.6844    0.0011    0.0000 C   0  0  0  0  0  0  0  0  0  0  0  0
  1  2  1  0
  2  3  1  0
  3  4  1  0
  4  5  1  0
  5  6  1  0
  6  7  1  6
  7  8  1  0
  8  9  1  0
  9 10  1  0
 10 11  2  0
 11 12  1  0
 12 13  1  0
 12 14  2  0
 14 15  1  0
 15 16  1  0
 16 17  1  0
 16 18  2  0
 18 19  1  0
 19 20  3  0
 18 21  1  0
  6  2  1  0
 21  9  2  0
 21 14  1  0
M  END
>  <CANDIDATE_ID>  (2) 
gpt56v91-sm-krasg12d-02621-FLRZLMYSWNATQP

>  <STATE>  (2) 
COMPUTATIONAL_PRIORITY

>  <ROUTE_ID>  (2) 
KRAS_G12D

>  <INCHIKEY>  (2) 
FLRZLMYSWNATQP-GFCCVEGCSA-N

>  <ISOMERIC_SMILES>  (2) 
CN1CCC[C@H]1OCc1ccc(F)c2sc(N)c(C#N)c12

>  <FORMULA>  (2) 
C15H16FN3OS

>  <PRIMARY_GEOMETRY>  (2) 
9BL0

>  <STRUCTURE_DIMENSION>  (2) 
2D_DEPICTION

>  <TARGET_POSE_STATUS>  (2) 
NOT_COMPUTED

>  <CLINICAL_GRADE>  (2) 
false

>  <DRUGGABLE>  (2) 
false

>  <GLOBAL_NOVELTY>  (2) 
NOT_ESTABLISHED

>  <CURATED_RANK>  (2) 
2

>  <QED>  (2) 
0.9464

$$$$
gpt56v91-sm-krasg12d-00553-JTQKZCJFKLCOKZ
     RDKit          2D

 22 25  0  0  0  0  0  0  0  0999 V2000
   -0.0935   -2.4275    0.0000 C   0  0  0  0  0  0  0  0  0  0  0  0
   -1.5432   -2.0424    0.0000 C   0  0  0  0  0  0  0  0  0  0  0  0
   -2.6016   -3.1053    0.0000 C   0  0  0  0  0  0  0  0  0  0  0  0
   -4.0513   -2.7202    0.0000 C   0  0  0  0  0  0  0  0  0  0  0  0
   -4.4427   -1.2721    0.0000 C   0  0  0  0  0  0  0  0  0  0  0  0
   -3.3843   -0.2092    0.0000 C   0  0  0  0  0  0  0  0  0  0  0  0
   -3.7756    1.2389    0.0000 C   0  0  0  0  0  0  0  0  0  0  0  0
   -2.7172    2.3018    0.0000 C   0  0  0  0  0  0  0  0  0  0  0  0
   -3.1085    3.7498    0.0000 O   0  0  0  0  0  0  0  0  0  0  0  0
   -1.2675    1.9166    0.0000 C   0  0  0  0  0  0  0  0  0  0  0  0
   -0.8761    0.4686    0.0000 C   0  0  0  0  0  0  0  0  0  0  0  0
    0.5736    0.0834    0.0000 O   0  0  0  0  0  0  0  0  0  0  0  0
    1.6320    1.1464    0.0000 C   0  0  0  0  0  0  0  0  0  0  0  0
    2.8625    0.2886    0.0000 N   0  0  0  0  0  0  0  0  0  0  0  0
    4.2206    0.9254    0.0000 C   0  0  0  0  0  0  0  0  0  0  0  0
    5.4512    0.0677    0.0000 C   0  0  0  0  0  0  0  0  0  0  0  0
    5.3236   -1.4269    0.0000 O   0  0  0  0  0  0  0  0  0  0  0  0
    3.9655   -2.0637    0.0000 C   0  0  0  0  0  0  0  0  0  0  0  0
    2.7350   -1.2060    0.0000 C   0  0  0  0  0  0  0  0  0  0  0  0
    2.2630    2.5072    0.0000 C   0  0  0  0  0  0  0  0  0  0  0  0
    0.7690    2.3732    0.0000 C   0  0  0  0  0  0  0  0  0  0  0  0
   -1.9345   -0.5943    0.0000 C   0  0  0  0  0  0  0  0  0  0  0  0
  1  2  1  0
  2  3  1  0
  3  4  2  0
  4  5  1  0
  5  6  2  0
  6  7  1  0
  7  8  2  0
  8  9  1  0
  8 10  1  0
 10 11  2  0
 11 12  1  0
 12 13  1  0
 13 14  1  0
 14 15  1  0
 15 16  1  0
 16 17  1  0
 17 18  1  0
 18 19  1  0
 13 20  1  0
 20 21  1  0
 11 22  1  0
 22  2  2  0
 22  6  1  0
 21 13  1  0
 19 14  1  0
M  END
>  <CANDIDATE_ID>  (3) 
gpt56v91-sm-krasg12d-00553-JTQKZCJFKLCOKZ

>  <STATE>  (3) 
COMPUTATIONAL_PRIORITY

>  <ROUTE_ID>  (3) 
KRAS_G12D

>  <INCHIKEY>  (3) 
JTQKZCJFKLCOKZ-UHFFFAOYSA-N

>  <ISOMERIC_SMILES>  (3) 
Cc1cccc2cc(O)cc(OC3(N4CCOCC4)CC3)c12

>  <FORMULA>  (3) 
C18H21NO3

>  <PRIMARY_GEOMETRY>  (3) 
9BL0

>  <STRUCTURE_DIMENSION>  (3) 
2D_DEPICTION

>  <TARGET_POSE_STATUS>  (3) 
NOT_COMPUTED

>  <CLINICAL_GRADE>  (3) 
false

>  <DRUGGABLE>  (3) 
false

>  <GLOBAL_NOVELTY>  (3) 
NOT_ESTABLISHED

>  <CURATED_RANK>  (3) 
3

>  <QED>  (3) 
0.9456

$$$$
gpt56v91-sm-krasg12d-01654-OZQGVDAAVLZDIZ
     RDKit          2D

 23 26  0  0  0  0  0  0  0  0999 V2000
    2.8676   -4.1364    0.0000 N   0  0  0  0  0  0  0  0  0  0  0  0
    2.6579   -2.6511    0.0000 C   0  0  0  0  0  0  0  0  0  0  0  0
    3.8393   -1.7269    0.0000 C   0  0  0  0  0  0  0  0  0  0  0  0
    3.6296   -0.2416    0.0000 C   0  0  0  0  0  0  0  0  0  0  0  0
    4.8110    0.6826    0.0000 C   0  0  0  0  0  0  0  0  0  0  0  0
    4.6013    2.1679    0.0000 C   0  0  0  0  0  0  0  0  0  0  0  0
    3.2102    2.7289    0.0000 C   0  0  0  0  0  0  0  0  0  0  0  0
    2.0288    1.8047    0.0000 C   0  0  0  0  0  0  0  0  0  0  0  0
    0.6376    2.3657    0.0000 F   0  0  0  0  0  0  0  0  0  0  0  0
    2.2385    0.3194    0.0000 C   0  0  0  0  0  0  0  0  0  0  0  0
    1.0570   -0.6048    0.0000 C   0  0  0  0  0  0  0  0  0  0  0  0
   -0.3341   -0.0438    0.0000 C   0  0  0  0  0  0  0  0  0  0  0  0
   -1.5155   -0.9680    0.0000 O   0  0  0  0  0  0  0  0  0  0  0  0
   -2.9067   -0.4070    0.0000 C   0  0  0  0  0  0  0  0  0  0  0  0
   -3.0104   -1.9034    0.0000 C   0  0  0  0  0  0  0  0  0  0  0  0
   -4.4656   -2.2672    0.0000 C   0  0  0  0  0  0  0  0  0  0  0  0
   -5.2613   -0.9957    0.0000 C   0  0  0  0  0  0  0  0  0  0  0  0
   -4.2978    0.1540    0.0000 N   0  0  0  0  0  0  0  0  0  0  0  0
   -4.1941    1.6504    0.0000 C   0  0  0  0  0  0  0  0  0  0  0  0
   -2.7389    2.0142    0.0000 C   0  0  0  0  0  0  0  0  0  0  0  0
   -2.1779    3.4054    0.0000 F   0  0  0  0  0  0  0  0  0  0  0  0
   -1.9432    0.7427    0.0000 C   0  0  0  0  0  0  0  0  0  0  0  0
    1.2667   -2.0901    0.0000 N   0  0  0  0  0  0  0  0  0  0  0  0
  1  2  1  0
  2  3  2  0
  3  4  1  0
  4  5  2  0
  5  6  1  0
  6  7  2  0
  7  8  1  0
  8  9  1  0
  8 10  2  0
 10 11  1  0
 11 12  1  0
 12 13  1  0
 14 13  1  1
 14 15  1  0
 15 16  1  0
 16 17  1  0
 17 18  1  0
 18 19  1  0
 19 20  1  0
 20 21  1  6
 20 22  1  0
 11 23  2  0
 23  2  1  0
 10  4  1  0
 18 14  1  0
 22 14  1  0
M  END
>  <CANDIDATE_ID>  (4) 
gpt56v91-sm-krasg12d-01654-OZQGVDAAVLZDIZ

>  <STATE>  (4) 
COMPUTATIONAL_PRIORITY

>  <ROUTE_ID>  (4) 
KRAS_G12D

>  <INCHIKEY>  (4) 
OZQGVDAAVLZDIZ-SJKOYZFVSA-N

>  <ISOMERIC_SMILES>  (4) 
Nc1cc2cccc(F)c2c(CO[C@@]23CCCN2C[C@H](F)C3)n1

>  <FORMULA>  (4) 
C17H19F2N3O

>  <PRIMARY_GEOMETRY>  (4) 
9BL0

>  <STRUCTURE_DIMENSION>  (4) 
2D_DEPICTION

>  <TARGET_POSE_STATUS>  (4) 
NOT_COMPUTED

>  <CLINICAL_GRADE>  (4) 
false

>  <DRUGGABLE>  (4) 
false

>  <GLOBAL_NOVELTY>  (4) 
NOT_ESTABLISHED

>  <CURATED_RANK>  (4) 
4

>  <QED>  (4) 
0.9447

$$$$
gpt56v91-sm-krasg12d-02323-GQSHKRUHOFIMOU
     RDKit          2D

 22 25  0  0  0  0  0  0  0  0999 V2000
   -4.3561   -3.4259    0.0000 N   0  0  0  0  0  0  0  0  0  0  0  0
   -3.7569   -2.0508    0.0000 C   0  0  0  0  0  0  0  0  0  0  0  0
   -2.2922   -1.7272    0.0000 N   0  0  0  0  0  0  0  0  0  0  0  0
   -2.1473   -0.2342    0.0000 C   0  0  0  0  0  0  0  0  0  0  0  0
   -0.9409    0.6571    0.0000 C   0  0  0  0  0  0  0  0  0  0  0  0
    0.4343    0.0579    0.0000 C   0  0  0  0  0  0  0  0  0  0  0  0
    1.6407    0.9492    0.0000 O   0  0  0  0  0  0  0  0  0  0  0  0
    3.0159    0.3500    0.0000 C   0  0  0  0  0  0  0  0  0  0  0  0
    3.1608    1.8430    0.0000 C   0  0  0  0  0  0  0  0  0  0  0  0
    4.6255    2.1665    0.0000 C   0  0  0  0  0  0  0  0  0  0  0  0
    5.3858    0.8735    0.0000 C   0  0  0  0  0  0  0  0  0  0  0  0
    4.3910   -0.2492    0.0000 N   0  0  0  0  0  0  0  0  0  0  0  0
    4.2461   -1.7422    0.0000 C   0  0  0  0  0  0  0  0  0  0  0  0
    2.7814   -2.0657    0.0000 C   0  0  0  0  0  0  0  0  0  0  0  0
    2.1822   -3.4408    0.0000 F   0  0  0  0  0  0  0  0  0  0  0  0
    2.0211   -0.7727    0.0000 C   0  0  0  0  0  0  0  0  0  0  0  0
   -1.1095    2.1475    0.0000 C   0  0  0  0  0  0  0  0  0  0  0  0
   -2.4846    2.7467    0.0000 C   0  0  0  0  0  0  0  0  0  0  0  0
   -3.6911    1.8554    0.0000 C   0  0  0  0  0  0  0  0  0  0  0  0
   -5.0662    2.4546    0.0000 F   0  0  0  0  0  0  0  0  0  0  0  0
   -3.5225    0.3649    0.0000 C   0  0  0  0  0  0  0  0  0  0  0  0
   -4.5173   -0.7577    0.0000 S   0  0  0  0  0  0  0  0  0  0  0  0
  1  2  1  0
  2  3  2  0
  3  4  1  0
  4  5  2  0
  5  6  1  0
  6  7  1  0
  8  7  1  1
  8  9  1  0
  9 10  1  0
 10 11  1  0
 11 12  1  0
 12 13  1  0
 13 14  1  0
 14 15  1  6
 14 16  1  0
  5 17  1  0
 17 18  2  0
 18 19  1  0
 19 20  1  0
 19 21  2  0
 21 22  1  0
 22  2  1  0
 21  4  1  0
 12  8  1  0
 16  8  1  0
M  END
>  <CANDIDATE_ID>  (5) 
gpt56v91-sm-krasg12d-02323-GQSHKRUHOFIMOU

>  <STATE>  (5) 
COMPUTATIONAL_PRIORITY

>  <ROUTE_ID>  (5) 
KRAS_G12D

>  <INCHIKEY>  (5) 
GQSHKRUHOFIMOU-MEBBXXQBSA-N

>  <ISOMERIC_SMILES>  (5) 
Nc1nc2c(CO[C@@]34CCCN3C[C@H](F)C4)ccc(F)c2s1

>  <FORMULA>  (5) 
C15H17F2N3OS

>  <PRIMARY_GEOMETRY>  (5) 
9BL0

>  <STRUCTURE_DIMENSION>  (5) 
2D_DEPICTION

>  <TARGET_POSE_STATUS>  (5) 
NOT_COMPUTED

>  <CLINICAL_GRADE>  (5) 
false

>  <DRUGGABLE>  (5) 
false

>  <GLOBAL_NOVELTY>  (5) 
NOT_ESTABLISHED

>  <CURATED_RANK>  (5) 
5

>  <QED>  (5) 
0.9422

$$$$
gpt56v91-sm-krasg12d-00552-DQLYEHADLXHFLQ
     RDKit          2D

 23 26  0  0  0  0  0  0  0  0999 V2000
   -2.8146   -2.6951    0.0000 C   0  0  0  0  0  0  0  0  0  0  0  0
   -3.4399   -1.3317    0.0000 C   0  0  0  0  0  0  0  0  0  0  0  0
   -4.9333   -1.1915    0.0000 C   0  0  0  0  0  0  0  0  0  0  0  0
   -5.5586    0.1719    0.0000 C   0  0  0  0  0  0  0  0  0  0  0  0
   -4.6905    1.3952    0.0000 C   0  0  0  0  0  0  0  0  0  0  0  0
   -3.1970    1.2550    0.0000 C   0  0  0  0  0  0  0  0  0  0  0  0
   -2.3289    2.4783    0.0000 C   0  0  0  0  0  0  0  0  0  0  0  0
   -0.8355    2.3381    0.0000 C   0  0  0  0  0  0  0  0  0  0  0  0
    0.0327    3.5613    0.0000 O   0  0  0  0  0  0  0  0  0  0  0  0
   -0.2102    0.9746    0.0000 C   0  0  0  0  0  0  0  0  0  0  0  0
   -1.0783   -0.2486    0.0000 C   0  0  0  0  0  0  0  0  0  0  0  0
   -0.4530   -1.6121    0.0000 O   0  0  0  0  0  0  0  0  0  0  0  0
    1.0404   -1.7523    0.0000 C   0  0  0  0  0  0  0  0  0  0  0  0
    1.4378   -0.3059    0.0000 C   0  0  0  0  0  0  0  0  0  0  0  0
    2.8892    0.0732    0.0000 N   0  0  0  0  0  0  0  0  0  0  0  0
    3.9431   -0.9942    0.0000 C   0  0  0  0  0  0  0  0  0  0  0  0
    5.3944   -0.6151    0.0000 C   0  0  0  0  0  0  0  0  0  0  0  0
    5.7918    0.8313    0.0000 O   0  0  0  0  0  0  0  0  0  0  0  0
    4.7379    1.8986    0.0000 C   0  0  0  0  0  0  0  0  0  0  0  0
    3.2866    1.5196    0.0000 C   0  0  0  0  0  0  0  0  0  0  0  0
    2.3959   -2.3948    0.0000 C   0  0  0  0  0  0  0  0  0  0  0  0
    1.1617   -3.2474    0.0000 C   0  0  0  0  0  0  0  0  0  0  0  0
   -2.5717   -0.1084    0.0000 C   0  0  0  0  0  0  0  0  0  0  0  0
  1  2  1  0
  2  3  1  0
  3  4  2  0
  4  5  1  0
  5  6  2  0
  6  7  1  0
  7  8  2  0
  8  9  1  0
  8 10  1  0
 10 11  2  0
 11 12  1  0
 12 13  1  0
 13 14  1  0
 14 15  1  0
 15 16  1  0
 16 17  1  0
 17 18  1  0
 18 19  1  0
 19 20  1  0
 13 21  1  0
 21 22  1  0
 11 23  1  0
 23  2  2  0
 23  6  1  0
 22 13  1  0
 20 15  1  0
M  END
>  <CANDIDATE_ID>  (6) 
gpt56v91-sm-krasg12d-00552-DQLYEHADLXHFLQ

>  <STATE>  (6) 
COMPUTATIONAL_PRIORITY

>  <ROUTE_ID>  (6) 
KRAS_G12D

>  <INCHIKEY>  (6) 
DQLYEHADLXHFLQ-UHFFFAOYSA-N

>  <ISOMERIC_SMILES>  (6) 
Cc1cccc2cc(O)cc(OC3(CN4CCOCC4)CC3)c12

>  <FORMULA>  (6) 
C19H23NO3

>  <PRIMARY_GEOMETRY>  (6) 
9BL0

>  <STRUCTURE_DIMENSION>  (6) 
2D_DEPICTION

>  <TARGET_POSE_STATUS>  (6) 
NOT_COMPUTED

>  <CLINICAL_GRADE>  (6) 
false

>  <DRUGGABLE>  (6) 
false

>  <GLOBAL_NOVELTY>  (6) 
NOT_ESTABLISHED

>  <CURATED_RANK>  (6) 
6

>  <QED>  (6) 
0.9416

$$$$
gpt56v91-sm-krasg12d-00532-SIKXDYXRZOXFDX
     RDKit          2D

 23 26  0  0  0  0  0  0  0  0999 V2000
    0.1767   -1.9429    0.0000 C   0  0  0  0  0  0  0  0  0  0  0  0
   -1.3151   -1.7864    0.0000 C   0  0  0  0  0  0  0  0  0  0  0  0
   -2.1965   -3.0002    0.0000 C   0  0  0  0  0  0  0  0  0  0  0  0
   -3.6883   -2.8437    0.0000 C   0  0  0  0  0  0  0  0  0  0  0  0
   -4.2987   -1.4735    0.0000 C   0  0  0  0  0  0  0  0  0  0  0  0
   -3.4173   -0.2598    0.0000 C   0  0  0  0  0  0  0  0  0  0  0  0
   -4.0277    1.1104    0.0000 C   0  0  0  0  0  0  0  0  0  0  0  0
   -3.1463    2.3241    0.0000 C   0  0  0  0  0  0  0  0  0  0  0  0
   -3.7567    3.6943    0.0000 O   0  0  0  0  0  0  0  0  0  0  0  0
   -1.6545    2.1676    0.0000 C   0  0  0  0  0  0  0  0  0  0  0  0
   -1.0441    0.7975    0.0000 C   0  0  0  0  0  0  0  0  0  0  0  0
    0.4478    0.6410    0.0000 C   0  0  0  0  0  0  0  0  0  0  0  0
    1.3292    1.8547    0.0000 O   0  0  0  0  0  0  0  0  0  0  0  0
    2.8210    1.6982    0.0000 C   0  0  0  0  0  0  0  0  0  0  0  0
    2.9259    0.2019    0.0000 N   0  0  0  0  0  0  0  0  0  0  0  0
    1.6826   -0.6372    0.0000 C   0  0  0  0  0  0  0  0  0  0  0  0
    1.7875   -2.1335    0.0000 C   0  0  0  0  0  0  0  0  0  0  0  0
    3.1358   -2.7908    0.0000 O   0  0  0  0  0  0  0  0  0  0  0  0
    4.3792   -1.9517    0.0000 C   0  0  0  0  0  0  0  0  0  0  0  0
    4.2743   -0.4554    0.0000 C   0  0  0  0  0  0  0  0  0  0  0  0
    4.2764    2.0614    0.0000 C   0  0  0  0  0  0  0  0  0  0  0  0
    3.2341    3.1402    0.0000 C   0  0  0  0  0  0  0  0  0  0  0  0
   -1.9255   -0.4163    0.0000 C   0  0  0  0  0  0  0  0  0  0  0  0
  1  2  1  0
  2  3  1  0
  3  4  2  0
  4  5  1  0
  5  6  2  0
  6  7  1  0
  7  8  2  0
  8  9  1  0
  8 10  1  0
 10 11  2  0
 11 12  1  0
 12 13  1  0
 13 14  1  0
 14 15  1  0
 15 16  1  0
 16 17  1  0
 17 18  1  0
 18 19  1  0
 19 20  1  0
 14 21  1  0
 21 22  1  0
 11 23  1  0
 23  2  2  0
 23  6  1  0
 22 14  1  0
 20 15  1  0
M  END
>  <CANDIDATE_ID>  (7) 
gpt56v91-sm-krasg12d-00532-SIKXDYXRZOXFDX

>  <STATE>  (7) 
COMPUTATIONAL_PRIORITY

>  <ROUTE_ID>  (7) 
KRAS_G12D

>  <INCHIKEY>  (7) 
SIKXDYXRZOXFDX-UHFFFAOYSA-N

>  <ISOMERIC_SMILES>  (7) 
Cc1cccc2cc(O)cc(COC3(N4CCOCC4)CC3)c12

>  <FORMULA>  (7) 
C19H23NO3

>  <PRIMARY_GEOMETRY>  (7) 
9BL0

>  <STRUCTURE_DIMENSION>  (7) 
2D_DEPICTION

>  <TARGET_POSE_STATUS>  (7) 
NOT_COMPUTED

>  <CLINICAL_GRADE>  (7) 
false

>  <DRUGGABLE>  (7) 
false

>  <GLOBAL_NOVELTY>  (7) 
NOT_ESTABLISHED

>  <CURATED_RANK>  (7) 
7

>  <QED>  (7) 
0.9411

$$$$
gpt56v91-sm-krasg12d-01537-SFGMSYUCFPPLEQ
     RDKit          2D

 22 25  0  0  0  0  0  0  0  0999 V2000
    2.5268    4.0645    0.0000 O   0  0  0  0  0  0  0  0  0  0  0  0
    2.5088    2.5646    0.0000 C   0  0  0  0  0  0  0  0  0  0  0  0
    1.2009    1.8302    0.0000 C   0  0  0  0  0  0  0  0  0  0  0  0
    1.1830    0.3303    0.0000 C   0  0  0  0  0  0  0  0  0  0  0  0
   -0.1250   -0.4041    0.0000 C   0  0  0  0  0  0  0  0  0  0  0  0
   -1.4149    0.3614    0.0000 O   0  0  0  0  0  0  0  0  0  0  0  0
   -2.7228   -0.3730    0.0000 C   0  0  0  0  0  0  0  0  0  0  0  0
   -1.6202   -1.3900    0.0000 C   0  0  0  0  0  0  0  0  0  0  0  0
   -2.2467   -2.7529    0.0000 C   0  0  0  0  0  0  0  0  0  0  0  0
   -3.7365   -2.5783    0.0000 C   0  0  0  0  0  0  0  0  0  0  0  0
   -4.0308   -1.1074    0.0000 N   0  0  0  0  0  0  0  0  0  0  0  0
   -5.1334   -0.0905    0.0000 C   0  0  0  0  0  0  0  0  0  0  0  0
   -4.5069    1.2725    0.0000 C   0  0  0  0  0  0  0  0  0  0  0  0
   -5.2413    2.5804    0.0000 F   0  0  0  0  0  0  0  0  0  0  0  0
   -3.0171    1.0978    0.0000 C   0  0  0  0  0  0  0  0  0  0  0  0
    2.4729   -0.4352    0.0000 C   0  0  0  0  0  0  0  0  0  0  0  0
    2.4550   -1.9351    0.0000 C   0  0  0  0  0  0  0  0  0  0  0  0
    3.7449   -2.7006    0.0000 C   0  0  0  0  0  0  0  0  0  0  0  0
    5.0529   -1.9662    0.0000 C   0  0  0  0  0  0  0  0  0  0  0  0
    5.0708   -0.4663    0.0000 C   0  0  0  0  0  0  0  0  0  0  0  0
    3.7809    0.2992    0.0000 C   0  0  0  0  0  0  0  0  0  0  0  0
    3.7988    1.7991    0.0000 C   0  0  0  0  0  0  0  0  0  0  0  0
  1  2  1  0
  2  3  1  0
  3  4  2  0
  4  5  1  0
  5  6  1  0
  7  6  1  6
  7  8  1  0
  8  9  1  0
  9 10  1  0
 10 11  1  0
 11 12  1  0
 12 13  1  0
 13 14  1  1
 13 15  1  0
  4 16  1  0
 16 17  2  0
 17 18  1  0
 18 19  2  0
 19 20  1  0
 20 21  2  0
 21 22  1  0
 22  2  2  0
 11  7  1  0
 21 16  1  0
 15  7  1  0
M  END
>  <CANDIDATE_ID>  (8) 
gpt56v91-sm-krasg12d-01537-SFGMSYUCFPPLEQ

>  <STATE>  (8) 
COMPUTATIONAL_PRIORITY

>  <ROUTE_ID>  (8) 
KRAS_G12D

>  <INCHIKEY>  (8) 
SFGMSYUCFPPLEQ-YJBOKZPZSA-N

>  <ISOMERIC_SMILES>  (8) 
Oc1cc(CO[C@]23CCCN2C[C@@H](F)C3)c2ccccc2c1

>  <FORMULA>  (8) 
C18H20FNO2

>  <PRIMARY_GEOMETRY>  (8) 
9BL0

>  <STRUCTURE_DIMENSION>  (8) 
2D_DEPICTION

>  <TARGET_POSE_STATUS>  (8) 
NOT_COMPUTED

>  <CLINICAL_GRADE>  (8) 
false

>  <DRUGGABLE>  (8) 
false

>  <GLOBAL_NOVELTY>  (8) 
NOT_ESTABLISHED

>  <CURATED_RANK>  (8) 
8

>  <QED>  (8) 
0.94

$$$$
gpt56v91-sm-krasg12d-00363-IBQXRHJYHYFNOG
     RDKit          2D

 24 26  0  0  0  0  0  0  0  0999 V2000
   -5.3425   -3.6689    0.0000 C   0  0  0  0  0  0  0  0  0  0  0  0
   -3.8693   -3.3867    0.0000 C   0  0  0  0  0  0  0  0  0  0  0  0
   -3.3772   -1.9697    0.0000 C   0  0  0  0  0  0  0  0  0  0  0  0
   -4.3582   -0.8350    0.0000 N   0  0  0  0  0  0  0  0  0  0  0  0
   -3.8661    0.5819    0.0000 C   0  0  0  0  0  0  0  0  0  0  0  0
   -2.3929    0.8642    0.0000 C   0  0  0  0  0  0  0  0  0  0  0  0
   -1.9007    2.2812    0.0000 C   0  0  0  0  0  0  0  0  0  0  0  0
   -2.8818    3.4159    0.0000 C   0  0  0  0  0  0  0  0  0  0  0  0
   -2.3896    4.8328    0.0000 C   0  0  0  0  0  0  0  0  0  0  0  0
   -0.4275    2.5634    0.0000 C   0  0  0  0  0  0  0  0  0  0  0  0
    0.5535    1.4287    0.0000 C   0  0  0  0  0  0  0  0  0  0  0  0
    2.0267    1.7110    0.0000 C   0  0  0  0  0  0  0  0  0  0  0  0
    2.5189    3.1279    0.0000 O   0  0  0  0  0  0  0  0  0  0  0  0
    3.0078    0.5763    0.0000 N   0  0  0  0  0  0  0  0  0  0  0  0
    2.5156   -0.8407    0.0000 C   0  0  0  0  0  0  0  0  0  0  0  0
    3.4967   -1.9754    0.0000 C   0  0  0  0  0  0  0  0  0  0  0  0
    4.9699   -1.6931    0.0000 C   0  0  0  0  0  0  0  0  0  0  0  0
    5.9509   -2.8278    0.0000 N   0  0  0  0  0  0  0  0  0  0  0  0
    5.4620   -0.2762    0.0000 C   0  0  0  0  0  0  0  0  0  0  0  0
    4.4810    0.8585    0.0000 C   0  0  0  0  0  0  0  0  0  0  0  0
    0.0614    0.0118    0.0000 N   0  0  0  0  0  0  0  0  0  0  0  0
   -1.4118   -0.2705    0.0000 C   0  0  0  0  0  0  0  0  0  0  0  0
   -1.9040   -1.6875    0.0000 C   0  0  0  0  0  0  0  0  0  0  0  0
   -0.9229   -2.8222    0.0000 F   0  0  0  0  0  0  0  0  0  0  0  0
  1  2  1  0
  2  3  1  0
  3  4  1  0
  4  5  2  0
  5  6  1  0
  6  7  2  0
  7  8  1  0
  8  9  1  0
  7 10  1  0
 10 11  2  0
 11 12  1  0
 12 13  2  0
 12 14  1  0
 14 15  1  0
 15 16  1  0
 16 17  1  0
 17 18  1  0
 17 19  1  0
 19 20  1  0
 11 21  1  0
 21 22  2  0
 22 23  1  0
 23 24  1  0
 23  3  2  0
 22  6  1  0
 20 14  1  0
M  END
>  <CANDIDATE_ID>  (9) 
gpt56v91-sm-krasg12d-00363-IBQXRHJYHYFNOG

>  <STATE>  (9) 
COMPUTATIONAL_PRIORITY

>  <ROUTE_ID>  (9) 
KRAS_G12D

>  <INCHIKEY>  (9) 
IBQXRHJYHYFNOG-UHFFFAOYSA-N

>  <ISOMERIC_SMILES>  (9) 
CCc1ncc2c(CC)cc(C(=O)N3CCC(N)CC3)nc2c1F

>  <FORMULA>  (9) 
C18H23FN4O

>  <PRIMARY_GEOMETRY>  (9) 
9BL0

>  <STRUCTURE_DIMENSION>  (9) 
2D_DEPICTION

>  <TARGET_POSE_STATUS>  (9) 
NOT_COMPUTED

>  <CLINICAL_GRADE>  (9) 
false

>  <DRUGGABLE>  (9) 
false

>  <GLOBAL_NOVELTY>  (9) 
NOT_ESTABLISHED

>  <CURATED_RANK>  (9) 
9

>  <QED>  (9) 
0.9382

$$$$
gpt56v91-sm-krasg12d-01355-OVNHSYBFROGGJB
     RDKit          2D

 23 26  0  0  0  0  0  0  0  0999 V2000
    2.4063    4.2216    0.0000 O   0  0  0  0  0  0  0  0  0  0  0  0
    2.4136    2.7216    0.0000 C   0  0  0  0  0  0  0  0  0  0  0  0
    1.1182    1.9653    0.0000 C   0  0  0  0  0  0  0  0  0  0  0  0
    1.1254    0.4653    0.0000 C   0  0  0  0  0  0  0  0  0  0  0  0
   -0.1700   -0.2910    0.0000 C   0  0  0  0  0  0  0  0  0  0  0  0
   -1.4726    0.4527    0.0000 O   0  0  0  0  0  0  0  0  0  0  0  0
   -2.7680   -0.3035    0.0000 C   0  0  0  0  0  0  0  0  0  0  0  0
   -1.6484   -1.3018    0.0000 C   0  0  0  0  0  0  0  0  0  0  0  0
   -2.2519   -2.6751    0.0000 C   0  0  0  0  0  0  0  0  0  0  0  0
   -3.7444   -2.5255    0.0000 C   0  0  0  0  0  0  0  0  0  0  0  0
   -4.0634   -1.0598    0.0000 N   0  0  0  0  0  0  0  0  0  0  0  0
   -5.1830   -0.0615    0.0000 C   0  0  0  0  0  0  0  0  0  0  0  0
   -4.5795    1.3117    0.0000 C   0  0  0  0  0  0  0  0  0  0  0  0
   -5.3358    2.6071    0.0000 F   0  0  0  0  0  0  0  0  0  0  0  0
   -3.0870    1.1622    0.0000 C   0  0  0  0  0  0  0  0  0  0  0  0
    2.4281   -0.2784    0.0000 C   0  0  0  0  0  0  0  0  0  0  0  0
    2.4353   -1.7784    0.0000 C   0  0  0  0  0  0  0  0  0  0  0  0
    1.1400   -2.5346    0.0000 F   0  0  0  0  0  0  0  0  0  0  0  0
    3.7380   -2.5221    0.0000 C   0  0  0  0  0  0  0  0  0  0  0  0
    5.0334   -1.7658    0.0000 C   0  0  0  0  0  0  0  0  0  0  0  0
    5.0261   -0.2658    0.0000 C   0  0  0  0  0  0  0  0  0  0  0  0
    3.7235    0.4779    0.0000 C   0  0  0  0  0  0  0  0  0  0  0  0
    3.7162    1.9779    0.0000 C   0  0  0  0  0  0  0  0  0  0  0  0
  1  2  1  0
  2  3  1  0
  3  4  2  0
  4  5  1  0
  5  6  1  0
  7  6  1  1
  7  8  1  0
  8  9  1  0
  9 10  1  0
 10 11  1  0
 11 12  1  0
 12 13  1  0
 13 14  1  6
 13 15  1  0
  4 16  1  0
 16 17  2  0
 17 18  1  0
 17 19  1  0
 19 20  2  0
 20 21  1  0
 21 22  2  0
 22 23  1  0
 23  2  2  0
 11  7  1  0
 22 16  1  0
 15  7  1  0
M  END
>  <CANDIDATE_ID>  (10) 
gpt56v91-sm-krasg12d-01355-OVNHSYBFROGGJB

>  <STATE>  (10) 
COMPUTATIONAL_PRIORITY

>  <ROUTE_ID>  (10) 
KRAS_G12D

>  <INCHIKEY>  (10) 
OVNHSYBFROGGJB-RDTXWAMCSA-N

>  <ISOMERIC_SMILES>  (10) 
Oc1cc(CO[C@@]23CCCN2C[C@H](F)C3)c2c(F)cccc2c1

>  <FORMULA>  (10) 
C18H19F2NO2

>  <PRIMARY_GEOMETRY>  (10) 
9BL0

>  <STRUCTURE_DIMENSION>  (10) 
2D_DEPICTION

>  <TARGET_POSE_STATUS>  (10) 
NOT_COMPUTED

>  <CLINICAL_GRADE>  (10) 
false

>  <DRUGGABLE>  (10) 
false

>  <GLOBAL_NOVELTY>  (10) 
NOT_ESTABLISHED

>  <CURATED_RANK>  (10) 
10

>  <QED>  (10) 
0.9354

$$$$
gpt56v91-sm-krasg12d-02391-HWZAIONOWFFRIX
     RDKit          2D

 21 24  0  0  0  0  0  0  0  0999 V2000
    2.6395    3.9689    0.0000 O   0  0  0  0  0  0  0  0  0  0  0  0
    2.4886    2.4765    0.0000 C   0  0  0  0  0  0  0  0  0  0  0  0
    1.1208    1.8610    0.0000 C   0  0  0  0  0  0  0  0  0  0  0  0
    0.9699    0.3686    0.0000 C   0  0  0  0  0  0  0  0  0  0  0  0
   -0.3980   -0.2469    0.0000 C   0  0  0  0  0  0  0  0  0  0  0  0
   -1.6150    0.6299    0.0000 O   0  0  0  0  0  0  0  0  0  0  0  0
   -2.9829    0.0144    0.0000 C   0  0  0  0  0  0  0  0  0  0  0  0
   -1.9748   -1.0963    0.0000 C   0  0  0  0  0  0  0  0  0  0  0  0
   -2.7196   -2.3983    0.0000 C   0  0  0  0  0  0  0  0  0  0  0  0
   -4.1881   -2.0923    0.0000 C   0  0  0  0  0  0  0  0  0  0  0  0
   -4.3508   -0.6011    0.0000 N   0  0  0  0  0  0  0  0  0  0  0  0
   -5.3589    0.5096    0.0000 C   0  0  0  0  0  0  0  0  0  0  0  0
   -4.6141    1.8116    0.0000 C   0  0  0  0  0  0  0  0  0  0  0  0
   -3.1456    1.5055    0.0000 C   0  0  0  0  0  0  0  0  0  0  0  0
    2.1869   -0.5083    0.0000 C   0  0  0  0  0  0  0  0  0  0  0  0
    2.0360   -2.0006    0.0000 C   0  0  0  0  0  0  0  0  0  0  0  0
    3.2530   -2.8775    0.0000 C   0  0  0  0  0  0  0  0  0  0  0  0
    4.6209   -2.2620    0.0000 C   0  0  0  0  0  0  0  0  0  0  0  0
    4.7718   -0.7696    0.0000 C   0  0  0  0  0  0  0  0  0  0  0  0
    3.5548    0.1073    0.0000 C   0  0  0  0  0  0  0  0  0  0  0  0
    3.7057    1.5997    0.0000 C   0  0  0  0  0  0  0  0  0  0  0  0
  1  2  1  0
  2  3  1  0
  3  4  2  0
  4  5  1  0
  5  6  1  0
  6  7  1  0
  7  8  1  0
  8  9  1  0
  9 10  1  0
 10 11  1  0
 11 12  1  0
 12 13  1  0
 13 14  1  0
  4 15  1  0
 15 16  2  0
 16 17  1  0
 17 18  2  0
 18 19  1  0
 19 20  2  0
 20 21  1  0
 21  2  2  0
 11  7  1  0
 20 15  1  0
 14  7  1  0
M  END
>  <CANDIDATE_ID>  (11) 
gpt56v91-sm-krasg12d-02391-HWZAIONOWFFRIX

>  <STATE>  (11) 
COMPUTATIONAL_PRIORITY

>  <ROUTE_ID>  (11) 
KRAS_G12D

>  <INCHIKEY>  (11) 
HWZAIONOWFFRIX-UHFFFAOYSA-N

>  <ISOMERIC_SMILES>  (11) 
Oc1cc(COC23CCCN2CCC3)c2ccccc2c1

>  <FORMULA>  (11) 
C18H21NO2

>  <PRIMARY_GEOMETRY>  (11) 
9BL0

>  <STRUCTURE_DIMENSION>  (11) 
2D_DEPICTION

>  <TARGET_POSE_STATUS>  (11) 
NOT_COMPUTED

>  <CLINICAL_GRADE>  (11) 
false

>  <DRUGGABLE>  (11) 
false

>  <GLOBAL_NOVELTY>  (11) 
NOT_ESTABLISHED

>  <CURATED_RANK>  (11) 
11

>  <QED>  (11) 
0.933

$$$$
gpt56v91-sm-krasg12d-00281-UCYFDVLKOVGHOA
     RDKit          2D

 22 24  0  0  0  0  0  0  0  0999 V2000
    3.8105    2.2661    0.0000 C   0  0  0  0  0  0  0  0  0  0  0  0
    3.3093    0.8523    0.0000 C   0  0  0  0  0  0  0  0  0  0  0  0
    4.2830   -0.2887    0.0000 C   0  0  0  0  0  0  0  0  0  0  0  0
    3.7818   -1.7024    0.0000 C   0  0  0  0  0  0  0  0  0  0  0  0
    4.7556   -2.8434    0.0000 N   0  0  0  0  0  0  0  0  0  0  0  0
    2.3068   -1.9753    0.0000 N   0  0  0  0  0  0  0  0  0  0  0  0
    1.3331   -0.8343    0.0000 C   0  0  0  0  0  0  0  0  0  0  0  0
   -0.1419   -1.1071    0.0000 C   0  0  0  0  0  0  0  0  0  0  0  0
   -1.1157    0.0338    0.0000 O   0  0  0  0  0  0  0  0  0  0  0  0
   -2.5907   -0.2390    0.0000 C   0  0  0  0  0  0  0  0  0  0  0  0
   -1.8754   -1.5575    0.0000 C   0  0  0  0  0  0  0  0  0  0  0  0
   -2.9083   -2.6452    0.0000 C   0  0  0  0  0  0  0  0  0  0  0  0
   -4.2620   -1.9989    0.0000 C   0  0  0  0  0  0  0  0  0  0  0  0
   -4.0656   -0.5118    0.0000 N   0  0  0  0  0  0  0  0  0  0  0  0
   -4.7809    0.8067    0.0000 C   0  0  0  0  0  0  0  0  0  0  0  0
   -3.7480    1.8944    0.0000 C   0  0  0  0  0  0  0  0  0  0  0  0
   -2.3943    1.2481    0.0000 C   0  0  0  0  0  0  0  0  0  0  0  0
    1.8343    0.5795    0.0000 C   0  0  0  0  0  0  0  0  0  0  0  0
    0.8605    1.7204    0.0000 C   0  0  0  0  0  0  0  0  0  0  0  0
   -0.1132    2.8614    0.0000 F   0  0  0  0  0  0  0  0  0  0  0  0
    2.0015    2.6942    0.0000 F   0  0  0  0  0  0  0  0  0  0  0  0
   -0.2804    0.7467    0.0000 F   0  0  0  0  0  0  0  0  0  0  0  0
  1  2  1  0
  2  3  1  0
  3  4  2  0
  4  5  1  0
  4  6  1  0
  6  7  2  0
  7  8  1  0
  8  9  1  0
  9 10  1  0
 10 11  1  0
 11 12  1  0
 12 13  1  0
 13 14  1  0
 14 15  1  0
 15 16  1  0
 16 17  1  0
  7 18  1  0
 18 19  1  0
 19 20  1  0
 19 21  1  0
 19 22  1  0
 18  2  2  0
 14 10  1  0
 17 10  1  0
M  END
>  <CANDIDATE_ID>  (12) 
gpt56v91-sm-krasg12d-00281-UCYFDVLKOVGHOA

>  <STATE>  (12) 
COMPUTATIONAL_PRIORITY

>  <ROUTE_ID>  (12) 
KRAS_G12D

>  <INCHIKEY>  (12) 
UCYFDVLKOVGHOA-UHFFFAOYSA-N

>  <ISOMERIC_SMILES>  (12) 
Cc1cc(N)nc(COC23CCCN2CCC3)c1C(F)(F)F

>  <FORMULA>  (12) 
C15H20F3N3O

>  <PRIMARY_GEOMETRY>  (12) 
9BL0

>  <STRUCTURE_DIMENSION>  (12) 
2D_DEPICTION

>  <TARGET_POSE_STATUS>  (12) 
NOT_COMPUTED

>  <CLINICAL_GRADE>  (12) 
false

>  <DRUGGABLE>  (12) 
false

>  <GLOBAL_NOVELTY>  (12) 
NOT_ESTABLISHED

>  <CURATED_RANK>  (12) 
12

>  <QED>  (12) 
0.9311

$$$$
gpt56v91-sm-krasg12d-00283-LSAKXHWSTHUNMP
     RDKit          2D

 22 24  0  0  0  0  0  0  0  0999 V2000
   -0.2755   -2.7533    0.0000 C   0  0  0  0  0  0  0  0  0  0  0  0
   -1.4348   -1.8015    0.0000 C   0  0  0  0  0  0  0  0  0  0  0  0
   -2.8388   -2.3297    0.0000 C   0  0  0  0  0  0  0  0  0  0  0  0
   -3.9981   -1.3779    0.0000 C   0  0  0  0  0  0  0  0  0  0  0  0
   -5.4021   -1.9061    0.0000 N   0  0  0  0  0  0  0  0  0  0  0  0
   -3.7536    0.1020    0.0000 N   0  0  0  0  0  0  0  0  0  0  0  0
   -2.3496    0.6302    0.0000 C   0  0  0  0  0  0  0  0  0  0  0  0
   -2.1051    2.1101    0.0000 C   0  0  0  0  0  0  0  0  0  0  0  0
   -1.8605    3.5900    0.0000 F   0  0  0  0  0  0  0  0  0  0  0  0
   -3.5850    2.3547    0.0000 F   0  0  0  0  0  0  0  0  0  0  0  0
   -0.6251    1.8655    0.0000 F   0  0  0  0  0  0  0  0  0  0  0  0
   -1.1903   -0.3216    0.0000 C   0  0  0  0  0  0  0  0  0  0  0  0
    0.2137    0.2066    0.0000 C   0  0  0  0  0  0  0  0  0  0  0  0
    1.3730   -0.7452    0.0000 O   0  0  0  0  0  0  0  0  0  0  0  0
    2.7770   -0.2171    0.0000 C   0  0  0  0  0  0  0  0  0  0  0  0
    1.8408    0.9550    0.0000 C   0  0  0  0  0  0  0  0  0  0  0  0
    2.6662    2.2075    0.0000 C   0  0  0  0  0  0  0  0  0  0  0  0
    4.1125    1.8095    0.0000 C   0  0  0  0  0  0  0  0  0  0  0  0
    4.1809    0.3111    0.0000 N   0  0  0  0  0  0  0  0  0  0  0  0
    5.1171   -0.8609    0.0000 C   0  0  0  0  0  0  0  0  0  0  0  0
    4.2917   -2.1134    0.0000 C   0  0  0  0  0  0  0  0  0  0  0  0
    2.8455   -1.7155    0.0000 C   0  0  0  0  0  0  0  0  0  0  0  0
  1  2  1  0
  2  3  1  0
  3  4  2  0
  4  5  1  0
  4  6  1  0
  6  7  2  0
  7  8  1  0
  8  9  1  0
  8 10  1  0
  8 11  1  0
  7 12  1  0
 12 13  1  0
 13 14  1  0
 14 15  1  0
 15 16  1  0
 16 17  1  0
 17 18  1  0
 18 19  1  0
 19 20  1  0
 20 21  1  0
 21 22  1  0
 12  2  2  0
 19 15  1  0
 22 15  1  0
M  END
>  <CANDIDATE_ID>  (13) 
gpt56v91-sm-krasg12d-00283-LSAKXHWSTHUNMP

>  <STATE>  (13) 
COMPUTATIONAL_PRIORITY

>  <ROUTE_ID>  (13) 
KRAS_G12D

>  <INCHIKEY>  (13) 
LSAKXHWSTHUNMP-UHFFFAOYSA-N

>  <ISOMERIC_SMILES>  (13) 
Cc1cc(N)nc(C(F)(F)F)c1COC12CCCN1CCC2

>  <FORMULA>  (13) 
C15H20F3N3O

>  <PRIMARY_GEOMETRY>  (13) 
9BL0

>  <STRUCTURE_DIMENSION>  (13) 
2D_DEPICTION

>  <TARGET_POSE_STATUS>  (13) 
NOT_COMPUTED

>  <CLINICAL_GRADE>  (13) 
false

>  <DRUGGABLE>  (13) 
false

>  <GLOBAL_NOVELTY>  (13) 
NOT_ESTABLISHED

>  <CURATED_RANK>  (13) 
13

>  <QED>  (13) 
0.9311

$$$$
gpt56v91-sm-krasg12d-00985-BXGVXIAUXSHRGG
     RDKit          2D

 21 23  0  0  0  0  0  0  0  0999 V2000
    0.1843   -3.6556    0.0000 C   0  0  0  0  0  0  0  0  0  0  0  0
   -0.1061   -2.1840    0.0000 C   0  0  0  0  0  0  0  0  0  0  0  0
   -1.5257   -1.6996    0.0000 C   0  0  0  0  0  0  0  0  0  0  0  0
   -2.6550   -2.6868    0.0000 C   0  0  0  0  0  0  0  0  0  0  0  0
   -4.0746   -2.2025    0.0000 C   0  0  0  0  0  0  0  0  0  0  0  0
   -4.3650   -0.7308    0.0000 C   0  0  0  0  0  0  0  0  0  0  0  0
   -3.2357    0.2564    0.0000 C   0  0  0  0  0  0  0  0  0  0  0  0
   -3.5260    1.7281    0.0000 C   0  0  0  0  0  0  0  0  0  0  0  0
   -2.3967    2.7153    0.0000 C   0  0  0  0  0  0  0  0  0  0  0  0
   -2.6871    4.1870    0.0000 O   0  0  0  0  0  0  0  0  0  0  0  0
   -0.9771    2.2309    0.0000 C   0  0  0  0  0  0  0  0  0  0  0  0
   -0.6867    0.7593    0.0000 C   0  0  0  0  0  0  0  0  0  0  0  0
    0.7329    0.2749    0.0000 C   0  0  0  0  0  0  0  0  0  0  0  0
    1.8622    1.2622    0.0000 O   0  0  0  0  0  0  0  0  0  0  0  0
    3.2818    0.7778    0.0000 C   0  0  0  0  0  0  0  0  0  0  0  0
    4.5082    1.6416    0.0000 C   0  0  0  0  0  0  0  0  0  0  0  0
    5.7086    0.7423    0.0000 C   0  0  0  0  0  0  0  0  0  0  0  0
    5.2243   -0.6774    0.0000 C   0  0  0  0  0  0  0  0  0  0  0  0
    3.7244   -0.6554    0.0000 N   0  0  0  0  0  0  0  0  0  0  0  0
    2.8251   -1.8559    0.0000 C   0  0  0  0  0  0  0  0  0  0  0  0
   -1.8160   -0.2279    0.0000 C   0  0  0  0  0  0  0  0  0  0  0  0
  1  2  1  0
  2  3  1  0
  3  4  1  0
  4  5  2  0
  5  6  1  0
  6  7  2  0
  7  8  1  0
  8  9  2  0
  9 10  1  0
  9 11  1  0
 11 12  2  0
 12 13  1  0
 13 14  1  0
 15 14  1  6
 15 16  1  0
 16 17  1  0
 17 18  1  0
 18 19  1  0
 19 20  1  0
 12 21  1  0
 21  3  2  0
 21  7  1  0
 19 15  1  0
M  END
>  <CANDIDATE_ID>  (14) 
gpt56v91-sm-krasg12d-00985-BXGVXIAUXSHRGG

>  <STATE>  (14) 
COMPUTATIONAL_PRIORITY

>  <ROUTE_ID>  (14) 
KRAS_G12D

>  <INCHIKEY>  (14) 
BXGVXIAUXSHRGG-QGZVFWFLSA-N

>  <ISOMERIC_SMILES>  (14) 
CCc1cccc2cc(O)cc(CO[C@@H]3CCCN3C)c12

>  <FORMULA>  (14) 
C18H23NO2

>  <PRIMARY_GEOMETRY>  (14) 
9BL0

>  <STRUCTURE_DIMENSION>  (14) 
2D_DEPICTION

>  <TARGET_POSE_STATUS>  (14) 
NOT_COMPUTED

>  <CLINICAL_GRADE>  (14) 
false

>  <DRUGGABLE>  (14) 
false

>  <GLOBAL_NOVELTY>  (14) 
NOT_ESTABLISHED

>  <CURATED_RANK>  (14) 
14

>  <QED>  (14) 
0.9299

$$$$
gpt56v91-sm-krasg12d-02177-FXCSXWXNOXOGRQ
     RDKit          2D

 20 21  0  0  0  0  0  0  0  0999 V2000
   -4.4323   -1.1556    0.0000 C   0  0  0  0  0  0  0  0  0  0  0  0
   -3.3523   -0.1146    0.0000 C   0  0  0  0  0  0  0  0  0  0  0  0
   -3.7138    1.3412    0.0000 C   0  0  0  0  0  0  0  0  0  0  0  0
   -2.6339    2.3822    0.0000 C   0  0  0  0  0  0  0  0  0  0  0  0
   -2.9954    3.8379    0.0000 N   0  0  0  0  0  0  0  0  0  0  0  0
   -1.1924    1.9674    0.0000 N   0  0  0  0  0  0  0  0  0  0  0  0
   -0.8308    0.5116    0.0000 C   0  0  0  0  0  0  0  0  0  0  0  0
    0.6107    0.0968    0.0000 C   0  0  0  0  0  0  0  0  0  0  0  0
    1.6907    1.1378    0.0000 O   0  0  0  0  0  0  0  0  0  0  0  0
    3.1322    0.7230    0.0000 C   0  0  0  0  0  0  0  0  0  0  0  0
    4.3150    1.6454    0.0000 C   0  0  0  0  0  0  0  0  0  0  0  0
    5.5578    0.8055    0.0000 C   0  0  0  0  0  0  0  0  0  0  0  0
    5.1430   -0.6360    0.0000 C   0  0  0  0  0  0  0  0  0  0  0  0
    3.6439   -0.6870    0.0000 N   0  0  0  0  0  0  0  0  0  0  0  0
    2.8040   -1.9298    0.0000 C   0  0  0  0  0  0  0  0  0  0  0  0
   -1.9108   -0.5294    0.0000 C   0  0  0  0  0  0  0  0  0  0  0  0
   -1.5493   -1.9852    0.0000 C   0  0  0  0  0  0  0  0  0  0  0  0
   -1.1877   -3.4409    0.0000 F   0  0  0  0  0  0  0  0  0  0  0  0
   -0.0935   -1.6236    0.0000 F   0  0  0  0  0  0  0  0  0  0  0  0
   -3.0050   -2.3467    0.0000 F   0  0  0  0  0  0  0  0  0  0  0  0
  1  2  1  0
  2  3  1  0
  3  4  2  0
  4  5  1  0
  4  6  1  0
  6  7  2  0
  7  8  1  0
  8  9  1  0
 10  9  1  6
 10 11  1  0
 11 12  1  0
 12 13  1  0
 13 14  1  0
 14 15  1  0
  7 16  1  0
 16 17  1  0
 17 18  1  0
 17 19  1  0
 17 20  1  0
 16  2  2  0
 14 10  1  0
M  END
>  <CANDIDATE_ID>  (15) 
gpt56v91-sm-krasg12d-02177-FXCSXWXNOXOGRQ

>  <STATE>  (15) 
COMPUTATIONAL_PRIORITY

>  <ROUTE_ID>  (15) 
KRAS_G12D

>  <INCHIKEY>  (15) 
FXCSXWXNOXOGRQ-LLVKDONJSA-N

>  <ISOMERIC_SMILES>  (15) 
Cc1cc(N)nc(CO[C@@H]2CCCN2C)c1C(F)(F)F

>  <FORMULA>  (15) 
C13H18F3N3O

>  <PRIMARY_GEOMETRY>  (15) 
9BL0

>  <STRUCTURE_DIMENSION>  (15) 
2D_DEPICTION

>  <TARGET_POSE_STATUS>  (15) 
NOT_COMPUTED

>  <CLINICAL_GRADE>  (15) 
false

>  <DRUGGABLE>  (15) 
false

>  <GLOBAL_NOVELTY>  (15) 
NOT_ESTABLISHED

>  <CURATED_RANK>  (15) 
15

>  <QED>  (15) 
0.9288

$$$$
gpt56v91-sm-krasg12d-02176-QOGITRBIAHREIY
     RDKit          2D

 20 21  0  0  0  0  0  0  0  0999 V2000
   -1.4090   -3.2308    0.0000 C   0  0  0  0  0  0  0  0  0  0  0  0
   -1.9992   -1.8518    0.0000 C   0  0  0  0  0  0  0  0  0  0  0  0
   -3.4886   -1.6735    0.0000 C   0  0  0  0  0  0  0  0  0  0  0  0
   -4.0788   -0.2945    0.0000 C   0  0  0  0  0  0  0  0  0  0  0  0
   -5.5682   -0.1162    0.0000 N   0  0  0  0  0  0  0  0  0  0  0  0
   -3.1797    0.9061    0.0000 N   0  0  0  0  0  0  0  0  0  0  0  0
   -1.6904    0.7278    0.0000 C   0  0  0  0  0  0  0  0  0  0  0  0
   -0.7913    1.9285    0.0000 C   0  0  0  0  0  0  0  0  0  0  0  0
    0.1078    3.1292    0.0000 F   0  0  0  0  0  0  0  0  0  0  0  0
   -1.9919    2.8276    0.0000 F   0  0  0  0  0  0  0  0  0  0  0  0
    0.4094    1.0294    0.0000 F   0  0  0  0  0  0  0  0  0  0  0  0
   -1.1001   -0.6512    0.0000 C   0  0  0  0  0  0  0  0  0  0  0  0
    0.3893   -0.8295    0.0000 C   0  0  0  0  0  0  0  0  0  0  0  0
    1.2884    0.3712    0.0000 O   0  0  0  0  0  0  0  0  0  0  0  0
    2.7777    0.1929    0.0000 C   0  0  0  0  0  0  0  0  0  0  0  0
    3.7974    1.2930    0.0000 C   0  0  0  0  0  0  0  0  0  0  0  0
    5.1588    0.6632    0.0000 C   0  0  0  0  0  0  0  0  0  0  0  0
    4.9805   -0.8262    0.0000 C   0  0  0  0  0  0  0  0  0  0  0  0
    3.5089   -1.1168    0.0000 N   0  0  0  0  0  0  0  0  0  0  0  0
    2.8791   -2.4782    0.0000 C   0  0  0  0  0  0  0  0  0  0  0  0
  1  2  1  0
  2  3  1  0
  3  4  2  0
  4  5  1  0
  4  6  1  0
  6  7  2  0
  7  8  1  0
  8  9  1  0
  8 10  1  0
  8 11  1  0
  7 12  1  0
 12 13  1  0
 13 14  1  0
 15 14  1  6
 15 16  1  0
 16 17  1  0
 17 18  1  0
 18 19  1  0
 19 20  1  0
 12  2  2  0
 19 15  1  0
M  END
>  <CANDIDATE_ID>  (16) 
gpt56v91-sm-krasg12d-02176-QOGITRBIAHREIY

>  <STATE>  (16) 
COMPUTATIONAL_PRIORITY

>  <ROUTE_ID>  (16) 
KRAS_G12D

>  <INCHIKEY>  (16) 
QOGITRBIAHREIY-LLVKDONJSA-N

>  <ISOMERIC_SMILES>  (16) 
Cc1cc(N)nc(C(F)(F)F)c1CO[C@@H]1CCCN1C

>  <FORMULA>  (16) 
C13H18F3N3O

>  <PRIMARY_GEOMETRY>  (16) 
9BL0

>  <STRUCTURE_DIMENSION>  (16) 
2D_DEPICTION

>  <TARGET_POSE_STATUS>  (16) 
NOT_COMPUTED

>  <CLINICAL_GRADE>  (16) 
false

>  <DRUGGABLE>  (16) 
false

>  <GLOBAL_NOVELTY>  (16) 
NOT_ESTABLISHED

>  <CURATED_RANK>  (16) 
16

>  <QED>  (16) 
0.9288

$$$$
gpt56v91-sm-krasg12d-01652-XGMXXRODSZKRKH
     RDKit          2D

 22 25  0  0  0  0  0  0  0  0999 V2000
    1.7359   -3.9588    0.0000 N   0  0  0  0  0  0  0  0  0  0  0  0
    1.7711   -2.4593    0.0000 C   0  0  0  0  0  0  0  0  0  0  0  0
    3.0874   -1.7400    0.0000 C   0  0  0  0  0  0  0  0  0  0  0  0
    3.1227   -0.2404    0.0000 C   0  0  0  0  0  0  0  0  0  0  0  0
    4.4390    0.4789    0.0000 C   0  0  0  0  0  0  0  0  0  0  0  0
    4.4742    1.9785    0.0000 C   0  0  0  0  0  0  0  0  0  0  0  0
    3.1932    2.7588    0.0000 C   0  0  0  0  0  0  0  0  0  0  0  0
    1.8769    2.0395    0.0000 C   0  0  0  0  0  0  0  0  0  0  0  0
    0.5958    2.8198    0.0000 F   0  0  0  0  0  0  0  0  0  0  0  0
    1.8416    0.5399    0.0000 C   0  0  0  0  0  0  0  0  0  0  0  0
    0.5253   -0.1794    0.0000 C   0  0  0  0  0  0  0  0  0  0  0  0
   -0.7557    0.6010    0.0000 O   0  0  0  0  0  0  0  0  0  0  0  0
   -2.0720   -0.1183    0.0000 C   0  0  0  0  0  0  0  0  0  0  0  0
   -0.9812   -1.1479    0.0000 C   0  0  0  0  0  0  0  0  0  0  0  0
   -1.6233   -2.5035    0.0000 C   0  0  0  0  0  0  0  0  0  0  0  0
   -3.1110   -2.3117    0.0000 C   0  0  0  0  0  0  0  0  0  0  0  0
   -3.3883   -0.8376    0.0000 N   0  0  0  0  0  0  0  0  0  0  0  0
   -4.4792    0.1920    0.0000 C   0  0  0  0  0  0  0  0  0  0  0  0
   -3.8370    1.5476    0.0000 C   0  0  0  0  0  0  0  0  0  0  0  0
   -4.5563    2.8639    0.0000 F   0  0  0  0  0  0  0  0  0  0  0  0
   -2.3493    1.3558    0.0000 C   0  0  0  0  0  0  0  0  0  0  0  0
    0.4901   -1.6789    0.0000 N   0  0  0  0  0  0  0  0  0  0  0  0
  1  2  1  0
  2  3  2  0
  3  4  1  0
  4  5  2  0
  5  6  1  0
  6  7  2  0
  7  8  1  0
  8  9  1  0
  8 10  2  0
 10 11  1  0
 11 12  1  0
 13 12  1  1
 13 14  1  0
 14 15  1  0
 15 16  1  0
 16 17  1  0
 17 18  1  0
 18 19  1  0
 19 20  1  6
 19 21  1  0
 11 22  2  0
 22  2  1  0
 10  4  1  0
 17 13  1  0
 21 13  1  0
M  END
>  <CANDIDATE_ID>  (17) 
gpt56v91-sm-krasg12d-01652-XGMXXRODSZKRKH

>  <STATE>  (17) 
COMPUTATIONAL_PRIORITY

>  <ROUTE_ID>  (17) 
KRAS_G12D

>  <INCHIKEY>  (17) 
XGMXXRODSZKRKH-BDJLRTHQSA-N

>  <ISOMERIC_SMILES>  (17) 
Nc1cc2cccc(F)c2c(O[C@@]23CCCN2C[C@H](F)C3)n1

>  <FORMULA>  (17) 
C16H17F2N3O

>  <PRIMARY_GEOMETRY>  (17) 
9BL0

>  <STRUCTURE_DIMENSION>  (17) 
2D_DEPICTION

>  <TARGET_POSE_STATUS>  (17) 
NOT_COMPUTED

>  <CLINICAL_GRADE>  (17) 
false

>  <DRUGGABLE>  (17) 
false

>  <GLOBAL_NOVELTY>  (17) 
NOT_ESTABLISHED

>  <CURATED_RANK>  (17) 
17

>  <QED>  (17) 
0.9267

$$$$
gpt56v91-sm-krasg12d-02321-JTOSVRRDMQTNDA
     RDKit          2D

 21 24  0  0  0  0  0  0  0  0999 V2000
   -4.3674   -3.3814    0.0000 N   0  0  0  0  0  0  0  0  0  0  0  0
   -3.5757   -2.1073    0.0000 C   0  0  0  0  0  0  0  0  0  0  0  0
   -2.0797   -1.9990    0.0000 N   0  0  0  0  0  0  0  0  0  0  0  0
   -1.7204   -0.5426    0.0000 C   0  0  0  0  0  0  0  0  0  0  0  0
   -0.3978    0.1649    0.0000 C   0  0  0  0  0  0  0  0  0  0  0  0
    0.8763   -0.6268    0.0000 O   0  0  0  0  0  0  0  0  0  0  0  0
    2.1989    0.0808    0.0000 C   0  0  0  0  0  0  0  0  0  0  0  0
    1.1173    1.1200    0.0000 C   0  0  0  0  0  0  0  0  0  0  0  0
    1.7715    2.4699    0.0000 C   0  0  0  0  0  0  0  0  0  0  0  0
    3.2574    2.2649    0.0000 C   0  0  0  0  0  0  0  0  0  0  0  0
    3.5216    0.7883    0.0000 N   0  0  0  0  0  0  0  0  0  0  0  0
    4.6032   -0.2510    0.0000 C   0  0  0  0  0  0  0  0  0  0  0  0
    3.9490   -1.6008    0.0000 C   0  0  0  0  0  0  0  0  0  0  0  0
    4.6566   -2.9235    0.0000 F   0  0  0  0  0  0  0  0  0  0  0  0
    2.4631   -1.3958    0.0000 C   0  0  0  0  0  0  0  0  0  0  0  0
   -0.3492    1.6641    0.0000 C   0  0  0  0  0  0  0  0  0  0  0  0
   -1.6233    2.4558    0.0000 C   0  0  0  0  0  0  0  0  0  0  0  0
   -2.9459    1.7483    0.0000 C   0  0  0  0  0  0  0  0  0  0  0  0
   -4.2200    2.5400    0.0000 F   0  0  0  0  0  0  0  0  0  0  0  0
   -2.9945    0.2491    0.0000 C   0  0  0  0  0  0  0  0  0  0  0  0
   -4.1411   -0.7180    0.0000 S   0  0  0  0  0  0  0  0  0  0  0  0
  1  2  1  0
  2  3  2  0
  3  4  1  0
  4  5  2  0
  5  6  1  0
  7  6  1  1
  7  8  1  0
  8  9  1  0
  9 10  1  0
 10 11  1  0
 11 12  1  0
 12 13  1  0
 13 14  1  6
 13 15  1  0
  5 16  1  0
 16 17  2  0
 17 18  1  0
 18 19  1  0
 18 20  2  0
 20 21  1  0
 21  2  1  0
 20  4  1  0
 11  7  1  0
 15  7  1  0
M  END
>  <CANDIDATE_ID>  (18) 
gpt56v91-sm-krasg12d-02321-JTOSVRRDMQTNDA

>  <STATE>  (18) 
COMPUTATIONAL_PRIORITY

>  <ROUTE_ID>  (18) 
KRAS_G12D

>  <INCHIKEY>  (18) 
JTOSVRRDMQTNDA-XLKFXECMSA-N

>  <ISOMERIC_SMILES>  (18) 
Nc1nc2c(O[C@@]34CCCN3C[C@H](F)C4)ccc(F)c2s1

>  <FORMULA>  (18) 
C14H15F2N3OS

>  <PRIMARY_GEOMETRY>  (18) 
9BL0

>  <STRUCTURE_DIMENSION>  (18) 
2D_DEPICTION

>  <TARGET_POSE_STATUS>  (18) 
NOT_COMPUTED

>  <CLINICAL_GRADE>  (18) 
false

>  <DRUGGABLE>  (18) 
false

>  <GLOBAL_NOVELTY>  (18) 
NOT_ESTABLISHED

>  <CURATED_RANK>  (18) 
18

>  <QED>  (18) 
0.9263

$$$$
gpt56v91-sm-krasg12d-02179-KXXDRSLBYYCTMX
     RDKit          2D

 22 24  0  0  0  0  0  0  0  0999 V2000
   -0.1920   -3.3025    0.0000 C   0  0  0  0  0  0  0  0  0  0  0  0
   -1.2883   -2.2787    0.0000 C   0  0  0  0  0  0  0  0  0  0  0  0
   -2.7231   -2.7162    0.0000 C   0  0  0  0  0  0  0  0  0  0  0  0
   -3.8194   -1.6924    0.0000 C   0  0  0  0  0  0  0  0  0  0  0  0
   -5.2542   -2.1300    0.0000 N   0  0  0  0  0  0  0  0  0  0  0  0
   -3.4809   -0.2311    0.0000 N   0  0  0  0  0  0  0  0  0  0  0  0
   -2.0462    0.2064    0.0000 C   0  0  0  0  0  0  0  0  0  0  0  0
   -1.7077    1.6677    0.0000 C   0  0  0  0  0  0  0  0  0  0  0  0
   -2.6910    2.8005    0.0000 C   0  0  0  0  0  0  0  0  0  0  0  0
   -1.9175    4.0857    0.0000 C   0  0  0  0  0  0  0  0  0  0  0  0
   -0.4562    3.7472    0.0000 C   0  0  0  0  0  0  0  0  0  0  0  0
   -0.3265    2.2528    0.0000 N   0  0  0  0  0  0  0  0  0  0  0  0
    0.9587    1.4794    0.0000 C   0  0  0  0  0  0  0  0  0  0  0  0
   -0.9499   -0.8174    0.0000 C   0  0  0  0  0  0  0  0  0  0  0  0
    0.4849   -0.3798    0.0000 C   0  0  0  0  0  0  0  0  0  0  0  0
    1.5812   -1.4036    0.0000 O   0  0  0  0  0  0  0  0  0  0  0  0
    3.0160   -0.9661    0.0000 C   0  0  0  0  0  0  0  0  0  0  0  0
    4.2133   -1.8696    0.0000 C   0  0  0  0  0  0  0  0  0  0  0  0
    5.4426   -1.0101    0.0000 C   0  0  0  0  0  0  0  0  0  0  0  0
    5.0051    0.4246    0.0000 C   0  0  0  0  0  0  0  0  0  0  0  0
    3.5053    0.4519    0.0000 N   0  0  0  0  0  0  0  0  0  0  0  0
    2.6458    1.6812    0.0000 C   0  0  0  0  0  0  0  0  0  0  0  0
  1  2  1  0
  2  3  1  0
  3  4  2  0
  4  5  1  0
  4  6  1  0
  6  7  2  0
  8  7  1  6
  8  9  1  0
  9 10  1  0
 10 11  1  0
 11 12  1  0
 12 13  1  0
  7 14  1  0
 14 15  1  0
 15 16  1  0
 17 16  1  1
 17 18  1  0
 18 19  1  0
 19 20  1  0
 20 21  1  0
 21 22  1  0
 14  2  2  0
 21 17  1  0
 12  8  1  0
M  END
>  <CANDIDATE_ID>  (19) 
gpt56v91-sm-krasg12d-02179-KXXDRSLBYYCTMX

>  <STATE>  (19) 
COMPUTATIONAL_PRIORITY

>  <ROUTE_ID>  (19) 
KRAS_G12D

>  <INCHIKEY>  (19) 
KXXDRSLBYYCTMX-GOEBONIOSA-N

>  <ISOMERIC_SMILES>  (19) 
Cc1cc(N)nc([C@@H]2CCCN2C)c1CO[C@@H]1CCCN1C

>  <FORMULA>  (19) 
C17H28N4O

>  <PRIMARY_GEOMETRY>  (19) 
9BL0

>  <STRUCTURE_DIMENSION>  (19) 
2D_DEPICTION

>  <TARGET_POSE_STATUS>  (19) 
NOT_COMPUTED

>  <CLINICAL_GRADE>  (19) 
false

>  <DRUGGABLE>  (19) 
false

>  <GLOBAL_NOVELTY>  (19) 
NOT_ESTABLISHED

>  <CURATED_RANK>  (19) 
19

>  <QED>  (19) 
0.9249

$$$$
gpt56v91-sm-krasg12d-02178-UOCPMXIGUGZOLU
     RDKit          2D

 22 24  0  0  0  0  0  0  0  0999 V2000
   -4.2917   -0.0858    0.0000 C   0  0  0  0  0  0  0  0  0  0  0  0
   -3.0711    0.7860    0.0000 C   0  0  0  0  0  0  0  0  0  0  0  0
   -3.2159    2.2790    0.0000 C   0  0  0  0  0  0  0  0  0  0  0  0
   -1.9953    3.1509    0.0000 C   0  0  0  0  0  0  0  0  0  0  0  0
   -2.1401    4.6439    0.0000 N   0  0  0  0  0  0  0  0  0  0  0  0
   -0.6299    2.5298    0.0000 N   0  0  0  0  0  0  0  0  0  0  0  0
   -0.4852    1.0368    0.0000 C   0  0  0  0  0  0  0  0  0  0  0  0
    0.8802    0.4157    0.0000 C   0  0  0  0  0  0  0  0  0  0  0  0
    2.1008    1.2876    0.0000 O   0  0  0  0  0  0  0  0  0  0  0  0
    3.4661    0.6665    0.0000 C   0  0  0  0  0  0  0  0  0  0  0  0
    4.7712    1.4060    0.0000 C   0  0  0  0  0  0  0  0  0  0  0  0
    5.8778    0.3933    0.0000 C   0  0  0  0  0  0  0  0  0  0  0  0
    5.2567   -0.9720    0.0000 C   0  0  0  0  0  0  0  0  0  0  0  0
    3.7662   -0.8032    0.0000 N   0  0  0  0  0  0  0  0  0  0  0  0
    2.7535   -1.9098    0.0000 C   0  0  0  0  0  0  0  0  0  0  0  0
   -1.7058    0.1649    0.0000 C   0  0  0  0  0  0  0  0  0  0  0  0
   -1.5610   -1.3281    0.0000 C   0  0  0  0  0  0  0  0  0  0  0  0
   -0.2680   -2.0885    0.0000 C   0  0  0  0  0  0  0  0  0  0  0  0
   -0.5917   -3.5532    0.0000 C   0  0  0  0  0  0  0  0  0  0  0  0
   -2.0847   -3.6979    0.0000 C   0  0  0  0  0  0  0  0  0  0  0  0
   -2.6837   -2.3228    0.0000 N   0  0  0  0  0  0  0  0  0  0  0  0
   -4.1484   -1.9991    0.0000 C   0  0  0  0  0  0  0  0  0  0  0  0
  1  2  1  0
  2  3  1  0
  3  4  2  0
  4  5  1  0
  4  6  1  0
  6  7  2  0
  7  8  1  0
  8  9  1  0
 10  9  1  6
 10 11  1  0
 11 12  1  0
 12 13  1  0
 13 14  1  0
 14 15  1  0
  7 16  1  0
 17 16  1  6
 17 18  1  0
 18 19  1  0
 19 20  1  0
 20 21  1  0
 21 22  1  0
 16  2  2  0
 21 17  1  0
 14 10  1  0
M  END
>  <CANDIDATE_ID>  (20) 
gpt56v91-sm-krasg12d-02178-UOCPMXIGUGZOLU

>  <STATE>  (20) 
COMPUTATIONAL_PRIORITY

>  <ROUTE_ID>  (20) 
KRAS_G12D

>  <INCHIKEY>  (20) 
UOCPMXIGUGZOLU-GOEBONIOSA-N

>  <ISOMERIC_SMILES>  (20) 
Cc1cc(N)nc(CO[C@@H]2CCCN2C)c1[C@@H]1CCCN1C

>  <FORMULA>  (20) 
C17H28N4O

>  <PRIMARY_GEOMETRY>  (20) 
9BL0

>  <STRUCTURE_DIMENSION>  (20) 
2D_DEPICTION

>  <TARGET_POSE_STATUS>  (20) 
NOT_COMPUTED

>  <CLINICAL_GRADE>  (20) 
false

>  <DRUGGABLE>  (20) 
false

>  <GLOBAL_NOVELTY>  (20) 
NOT_ESTABLISHED

>  <CURATED_RANK>  (20) 
20

>  <QED>  (20) 
0.9249

$$$$
gpt56v91-sm-krasg12d-02186-LGPVGJPISCANIW
     RDKit          2D

 21 23  0  0  0  0  0  0  0  0999 V2000
   -3.6696    1.4128    0.0000 C   0  0  0  0  0  0  0  0  0  0  0  0
   -2.1797    1.5863    0.0000 C   0  0  0  0  0  0  0  0  0  0  0  0
   -1.5850    2.9634    0.0000 C   0  0  0  0  0  0  0  0  0  0  0  0
   -0.0951    3.1369    0.0000 C   0  0  0  0  0  0  0  0  0  0  0  0
    0.4996    4.5140    0.0000 N   0  0  0  0  0  0  0  0  0  0  0  0
    0.8001    1.9334    0.0000 N   0  0  0  0  0  0  0  0  0  0  0  0
    0.2055    0.5563    0.0000 C   0  0  0  0  0  0  0  0  0  0  0  0
    1.1007   -0.6473    0.0000 O   0  0  0  0  0  0  0  0  0  0  0  0
    2.5906   -0.4737    0.0000 C   0  0  0  0  0  0  0  0  0  0  0  0
    3.3260    0.8337    0.0000 C   0  0  0  0  0  0  0  0  0  0  0  0
    4.7966    0.5383    0.0000 C   0  0  0  0  0  0  0  0  0  0  0  0
    4.9702   -0.9516    0.0000 C   0  0  0  0  0  0  0  0  0  0  0  0
    3.6068   -1.5771    0.0000 N   0  0  0  0  0  0  0  0  0  0  0  0
    3.3114   -3.0477    0.0000 C   0  0  0  0  0  0  0  0  0  0  0  0
   -1.2845    0.3828    0.0000 C   0  0  0  0  0  0  0  0  0  0  0  0
   -1.8791   -0.9943    0.0000 C   0  0  0  0  0  0  0  0  0  0  0  0
   -1.1146   -2.2849    0.0000 C   0  0  0  0  0  0  0  0  0  0  0  0
   -2.1057   -3.4108    0.0000 C   0  0  0  0  0  0  0  0  0  0  0  0
   -3.4828   -2.8161    0.0000 C   0  0  0  0  0  0  0  0  0  0  0  0
   -3.3428   -1.3227    0.0000 N   0  0  0  0  0  0  0  0  0  0  0  0
   -4.4687   -0.3315    0.0000 C   0  0  0  0  0  0  0  0  0  0  0  0
  1  2  1  0
  2  3  1  0
  3  4  2  0
  4  5  1  0
  4  6  1  0
  6  7  2  0
  7  8  1  0
  9  8  1  6
  9 10  1  0
 10 11  1  0
 11 12  1  0
 12 13  1  0
 13 14  1  0
  7 15  1  0
 16 15  1  6
 16 17  1  0
 17 18  1  0
 18 19  1  0
 19 20  1  0
 20 21  1  0
 15  2  2  0
 20 16  1  0
 13  9  1  0
M  END
>  <CANDIDATE_ID>  (21) 
gpt56v91-sm-krasg12d-02186-LGPVGJPISCANIW

>  <STATE>  (21) 
COMPUTATIONAL_PRIORITY

>  <ROUTE_ID>  (21) 
KRAS_G12D

>  <INCHIKEY>  (21) 
LGPVGJPISCANIW-GXTWGEPZSA-N

>  <ISOMERIC_SMILES>  (21) 
Cc1cc(N)nc(O[C@@H]2CCCN2C)c1[C@@H]1CCCN1C

>  <FORMULA>  (21) 
C16H26N4O

>  <PRIMARY_GEOMETRY>  (21) 
9BL0

>  <STRUCTURE_DIMENSION>  (21) 
2D_DEPICTION

>  <TARGET_POSE_STATUS>  (21) 
NOT_COMPUTED

>  <CLINICAL_GRADE>  (21) 
false

>  <DRUGGABLE>  (21) 
false

>  <GLOBAL_NOVELTY>  (21) 
NOT_ESTABLISHED

>  <CURATED_RANK>  (21) 
21

>  <QED>  (21) 
0.9244

$$$$
gpt56v91-sm-krasg12d-02619-NPVNTVODHGEPEH
     RDKit          2D

 20 22  0  0  0  0  0  0  0  0999 V2000
   -3.9408    2.3078    0.0000 C   0  0  0  0  0  0  0  0  0  0  0  0
   -3.8912    0.8086    0.0000 N   0  0  0  0  0  0  0  0  0  0  0  0
   -5.0749   -0.1127    0.0000 C   0  0  0  0  0  0  0  0  0  0  0  0
   -4.5644   -1.5232    0.0000 C   0  0  0  0  0  0  0  0  0  0  0  0
   -3.0652   -1.4736    0.0000 C   0  0  0  0  0  0  0  0  0  0  0  0
   -2.6492   -0.0324    0.0000 C   0  0  0  0  0  0  0  0  0  0  0  0
   -1.2387    0.4780    0.0000 O   0  0  0  0  0  0  0  0  0  0  0  0
   -0.0914   -0.4882    0.0000 C   0  0  0  0  0  0  0  0  0  0  0  0
   -0.3545   -1.9650    0.0000 C   0  0  0  0  0  0  0  0  0  0  0  0
    0.7928   -2.9312    0.0000 C   0  0  0  0  0  0  0  0  0  0  0  0
    2.2032   -2.4208    0.0000 C   0  0  0  0  0  0  0  0  0  0  0  0
    3.3505   -3.3870    0.0000 F   0  0  0  0  0  0  0  0  0  0  0  0
    2.4664   -0.9440    0.0000 C   0  0  0  0  0  0  0  0  0  0  0  0
    3.7399   -0.1515    0.0000 S   0  0  0  0  0  0  0  0  0  0  0  0
    3.3797    1.3046    0.0000 C   0  0  0  0  0  0  0  0  0  0  0  0
    4.3459    2.4519    0.0000 N   0  0  0  0  0  0  0  0  0  0  0  0
    1.8835    1.4120    0.0000 C   0  0  0  0  0  0  0  0  0  0  0  0
    1.0910    2.6855    0.0000 C   0  0  0  0  0  0  0  0  0  0  0  0
    0.2984    3.9590    0.0000 N   0  0  0  0  0  0  0  0  0  0  0  0
    1.3191    0.0222    0.0000 C   0  0  0  0  0  0  0  0  0  0  0  0
  1  2  1  0
  2  3  1  0
  3  4  1  0
  4  5  1  0
  5  6  1  0
  6  7  1  6
  7  8  1  0
  8  9  1  0
  9 10  2  0
 10 11  1  0
 11 12  1  0
 11 13  2  0
 13 14  1  0
 14 15  1  0
 15 16  1  0
 15 17  2  0
 17 18  1  0
 18 19  3  0
 17 20  1  0
  6  2  1  0
 20  8  2  0
 20 13  1  0
M  END
>  <CANDIDATE_ID>  (22) 
gpt56v91-sm-krasg12d-02619-NPVNTVODHGEPEH

>  <STATE>  (22) 
COMPUTATIONAL_PRIORITY

>  <ROUTE_ID>  (22) 
KRAS_G12D

>  <INCHIKEY>  (22) 
NPVNTVODHGEPEH-LLVKDONJSA-N

>  <ISOMERIC_SMILES>  (22) 
CN1CCC[C@H]1Oc1ccc(F)c2sc(N)c(C#N)c12

>  <FORMULA>  (22) 
C14H14FN3OS

>  <PRIMARY_GEOMETRY>  (22) 
9BL0

>  <STRUCTURE_DIMENSION>  (22) 
2D_DEPICTION

>  <TARGET_POSE_STATUS>  (22) 
NOT_COMPUTED

>  <CLINICAL_GRADE>  (22) 
false

>  <DRUGGABLE>  (22) 
false

>  <GLOBAL_NOVELTY>  (22) 
NOT_ESTABLISHED

>  <CURATED_RANK>  (22) 
22

>  <QED>  (22) 
0.9238

$$$$
gpt56v91-sm-krasg12d-00391-OFNCRXQRGNFZJI
     RDKit          2D

 24 27  0  0  0  0  0  0  0  0999 V2000
    2.3579   -4.5338    0.0000 O   0  0  0  0  0  0  0  0  0  0  0  0
    2.2779   -3.0359    0.0000 C   0  0  0  0  0  0  0  0  0  0  0  0
    0.9407   -2.3562    0.0000 C   0  0  0  0  0  0  0  0  0  0  0  0
    0.8607   -0.8584    0.0000 C   0  0  0  0  0  0  0  0  0  0  0  0
   -0.4764   -0.1787    0.0000 C   0  0  0  0  0  0  0  0  0  0  0  0
   -1.7336   -0.9969    0.0000 O   0  0  0  0  0  0  0  0  0  0  0  0
   -3.0708   -0.3172    0.0000 C   0  0  0  0  0  0  0  0  0  0  0  0
   -3.3040   -1.7990    0.0000 C   0  0  0  0  0  0  0  0  0  0  0  0
   -4.7853   -2.0351    0.0000 C   0  0  0  0  0  0  0  0  0  0  0  0
   -5.4676   -0.6993    0.0000 C   0  0  0  0  0  0  0  0  0  0  0  0
   -4.4080    0.3624    0.0000 N   0  0  0  0  0  0  0  0  0  0  0  0
   -4.1748    1.8442    0.0000 C   0  0  0  0  0  0  0  0  0  0  0  0
   -2.6935    2.0803    0.0000 C   0  0  0  0  0  0  0  0  0  0  0  0
   -2.0138    3.4175    0.0000 F   0  0  0  0  0  0  0  0  0  0  0  0
   -2.0112    0.7445    0.0000 C   0  0  0  0  0  0  0  0  0  0  0  0
    2.1179   -0.0402    0.0000 C   0  0  0  0  0  0  0  0  0  0  0  0
    2.0380    1.4577    0.0000 C   0  0  0  0  0  0  0  0  0  0  0  0
    0.7008    2.1374    0.0000 F   0  0  0  0  0  0  0  0  0  0  0  0
    3.2952    2.2759    0.0000 C   0  0  0  0  0  0  0  0  0  0  0  0
    3.2152    3.7738    0.0000 F   0  0  0  0  0  0  0  0  0  0  0  0
    4.6323    1.5962    0.0000 C   0  0  0  0  0  0  0  0  0  0  0  0
    4.7123    0.0984    0.0000 C   0  0  0  0  0  0  0  0  0  0  0  0
    3.4551   -0.7198    0.0000 C   0  0  0  0  0  0  0  0  0  0  0  0
    3.5351   -2.2177    0.0000 C   0  0  0  0  0  0  0  0  0  0  0  0
  1  2  1  0
  2  3  2  0
  3  4  1  0
  4  5  1  0
  5  6  1  0
  7  6  1  1
  7  8  1  0
  8  9  1  0
  9 10  1  0
 10 11  1  0
 11 12  1  0
 12 13  1  0
 13 14  1  6
 13 15  1  0
  4 16  2  0
 16 17  1  0
 17 18  1  0
 17 19  2  0
 19 20  1  0
 19 21  1  0
 21 22  2  0
 22 23  1  0
 23 24  2  0
 24  2  1  0
 11  7  1  0
 23 16  1  0
 15  7  1  0
M  END
>  <CANDIDATE_ID>  (23) 
gpt56v91-sm-krasg12d-00391-OFNCRXQRGNFZJI

>  <STATE>  (23) 
COMPUTATIONAL_PRIORITY

>  <ROUTE_ID>  (23) 
KRAS_G12D

>  <INCHIKEY>  (23) 
OFNCRXQRGNFZJI-FZKQIMNGSA-N

>  <ISOMERIC_SMILES>  (23) 
Oc1cc(CO[C@@]23CCCN2C[C@H](F)C3)c2c(F)c(F)ccc2c1

>  <FORMULA>  (23) 
C18H18F3NO2

>  <PRIMARY_GEOMETRY>  (23) 
9BL0

>  <STRUCTURE_DIMENSION>  (23) 
2D_DEPICTION

>  <TARGET_POSE_STATUS>  (23) 
NOT_COMPUTED

>  <CLINICAL_GRADE>  (23) 
false

>  <DRUGGABLE>  (23) 
false

>  <GLOBAL_NOVELTY>  (23) 
NOT_ESTABLISHED

>  <CURATED_RANK>  (23) 
23

>  <QED>  (23) 
0.9227

$$$$
gpt56v91-sm-krasg12d-00536-DJQMDUSVZGPTOJ
     RDKit          2D

 25 29  0  0  0  0  0  0  0  0999 V2000
   -1.0338    0.0002    0.0000 C   0  0  0  0  0  0  0  0  0  0  0  0
    0.0351    1.0525    0.0000 C   0  0  0  0  0  0  0  0  0  0  0  0
   -0.3418    2.5044    0.0000 C   0  0  0  0  0  0  0  0  0  0  0  0
    0.7271    3.5567    0.0000 C   0  0  0  0  0  0  0  0  0  0  0  0
    2.1729    3.1572    0.0000 C   0  0  0  0  0  0  0  0  0  0  0  0
    2.5498    1.7053    0.0000 C   0  0  0  0  0  0  0  0  0  0  0  0
    3.9956    1.3057    0.0000 C   0  0  0  0  0  0  0  0  0  0  0  0
    4.3725   -0.1461    0.0000 C   0  0  0  0  0  0  0  0  0  0  0  0
    5.8183   -0.5457    0.0000 O   0  0  0  0  0  0  0  0  0  0  0  0
    3.3036   -1.1985    0.0000 C   0  0  0  0  0  0  0  0  0  0  0  0
    1.8578   -0.7989    0.0000 C   0  0  0  0  0  0  0  0  0  0  0  0
    0.7889   -1.8513    0.0000 C   0  0  0  0  0  0  0  0  0  0  0  0
   -0.4331   -0.9813    0.0000 O   0  0  0  0  0  0  0  0  0  0  0  0
   -1.7975   -1.6046    0.0000 C   0  0  0  0  0  0  0  0  0  0  0  0
   -2.6482   -0.3692    0.0000 N   0  0  0  0  0  0  0  0  0  0  0  0
   -4.1435   -0.4882    0.0000 C   0  0  0  0  0  0  0  0  0  0  0  0
   -4.9942    0.7472    0.0000 C   0  0  0  0  0  0  0  0  0  0  0  0
   -4.3497    2.1016    0.0000 O   0  0  0  0  0  0  0  0  0  0  0  0
   -2.8544    2.2207    0.0000 C   0  0  0  0  0  0  0  0  0  0  0  0
   -2.0037    0.9853    0.0000 C   0  0  0  0  0  0  0  0  0  0  0  0
   -2.8664   -2.6569    0.0000 C   0  0  0  0  0  0  0  0  0  0  0  0
   -1.4206   -3.0565    0.0000 C   0  0  0  0  0  0  0  0  0  0  0  0
    0.1443   -3.2057    0.0000 C   0  0  0  0  0  0  0  0  0  0  0  0
    1.6396   -3.0867    0.0000 C   0  0  0  0  0  0  0  0  0  0  0  0
    1.4809    0.6530    0.0000 C   0  0  0  0  0  0  0  0  0  0  0  0
  1  2  1  0
  2  3  1  0
  3  4  2  0
  4  5  1  0
  5  6  2  0
  6  7  1  0
  7  8  2  0
  8  9  1  0
  8 10  1  0
 10 11  2  0
 11 12  1  0
 12 13  1  0
 13 14  1  0
 14 15  1  0
 15 16  1  0
 16 17  1  0
 17 18  1  0
 18 19  1  0
 19 20  1  0
 14 21  1  0
 21 22  1  0
 12 23  1  0
 23 24  1  0
 11 25  1  0
 25  2  2  0
 25  6  1  0
 24 12  1  0
 22 14  1  0
 20 15  1  0
M  END
>  <CANDIDATE_ID>  (24) 
gpt56v91-sm-krasg12d-00536-DJQMDUSVZGPTOJ

>  <STATE>  (24) 
COMPUTATIONAL_PRIORITY

>  <ROUTE_ID>  (24) 
KRAS_G12D

>  <INCHIKEY>  (24) 
DJQMDUSVZGPTOJ-UHFFFAOYSA-N

>  <ISOMERIC_SMILES>  (24) 
Cc1cccc2cc(O)cc(C3(OC4(N5CCOCC5)CC4)CC3)c12

>  <FORMULA>  (24) 
C21H25NO3

>  <PRIMARY_GEOMETRY>  (24) 
9BL0

>  <STRUCTURE_DIMENSION>  (24) 
2D_DEPICTION

>  <TARGET_POSE_STATUS>  (24) 
NOT_COMPUTED

>  <CLINICAL_GRADE>  (24) 
false

>  <DRUGGABLE>  (24) 
false

>  <GLOBAL_NOVELTY>  (24) 
NOT_ESTABLISHED

>  <CURATED_RANK>  (24) 
24

>  <QED>  (24) 
0.9225

$$$$
